/media/chris/experiments/cd1a-new-docking/inputs/ligands/4x6d_2_ligand.pdb


 19 18  0  0  0  0  0  0  0  0999 V2000
  -47.1232   58.3237   64.9939 C   0  0  0  0  0  0  0  0  0  0  0  0
  -46.7579   58.3575   66.4715 C   0  0  0  0  0  0  0  0  0  0  0  0
  -45.8781   59.5440   66.8264 C   0  0  0  0  0  0  0  0  0  0  0  0
  -45.2511   60.1262   65.5702 C   0  0  0  0  0  0  0  0  0  0  0  0
  -43.7599   60.2975   65.7970 C   0  0  0  0  0  0  0  0  0  0  0  0
  -42.9677   60.0910   64.5157 C   0  0  0  0  0  0  0  0  0  0  0  0
  -42.1572   61.3308   64.2303 C   0  0  0  0  0  0  0  0  0  0  0  0
  -41.3919   61.7906   65.1002 O   0  0  0  0  0  0  0  0  0  0  0  0
  -42.2386   61.9182   63.1308 O   0  0  0  0  0  0  0  0  0  0  0  0
  -42.8081   61.5881   62.4641 H   0  0  0  0  0  0  0  0  0  0  0  0
  -48.6192   58.0595   64.9062 C   0  0  0  0  0  0  0  0  0  0  0  0
  -49.3884   59.3101   64.5538 C   0  0  0  0  0  0  0  0  0  0  0  0
  -50.1682   59.3583   63.3069 C   0  0  0  0  0  0  0  0  0  0  0  0
  -50.0088   58.2453   62.3019 C   0  0  0  0  0  0  0  0  0  0  0  0
  -49.9108   58.8054   60.8871 C   0  0  0  0  0  0  0  0  0  0  0  0
  -50.3339   57.7479   59.8679 C   0  0  0  0  0  0  0  0  0  0  0  0
  -49.3230   57.6233   58.7290 C   0  0  0  0  0  0  0  0  0  0  0  0
  -47.8988   57.9386   59.1932 C   0  0  0  0  0  0  0  0  0  0  0  0
  -47.0149   58.4809   58.0731 C   0  0  0  0  0  0  0  0  0  0  0  0
  7  8  2  0  0  0
  7  6  1  0  0  0
  7  9  1  0  0  0
  6  5  1  0  0  0
  9 10  1  0  0  0
  5  4  1  0  0  0
  4  3  1  0  0  0
  3  2  1  0  0  0
  2  1  1  0  0  0
  1 11  1  0  0  0
 11 12  1  0  0  0
 12 13  2  0  0  0
 13 14  1  0  0  0
 14 15  1  0  0  0
 15 16  1  0  0  0
 16 17  1  0  0  0
 17 18  1  0  0  0
 18 19  1  0  0  0
M  END
> <minimizedAffinity>
-6.83307

> <CNNscore>
0.8223000765

> <CNNaffinity>
6.5127959251

> <CNN_VS>
5.3554725647

> <CNNaffinity_variance>
0.4056873322

$$$$
/media/chris/experiments/cd1a-new-docking/inputs/ligands/4x6d_2_ligand.pdb


 19 18  0  0  0  0  0  0  0  0999 V2000
  -45.6821   59.6054   66.5451 C   0  0  0  0  0  0  0  0  0  0  0  0
  -45.2979   58.2422   65.9866 C   0  0  0  0  0  0  0  0  0  0  0  0
  -44.3440   58.3439   64.8086 C   0  0  0  0  0  0  0  0  0  0  0  0
  -43.4976   59.6008   64.9262 C   0  0  0  0  0  0  0  0  0  0  0  0
  -42.1960   59.2552   65.6266 C   0  0  0  0  0  0  0  0  0  0  0  0
  -41.7070   60.3976   66.5030 C   0  0  0  0  0  0  0  0  0  0  0  0
  -40.7532   61.2559   65.7099 C   0  0  0  0  0  0  0  0  0  0  0  0
  -40.0886   60.7566   64.7810 O   0  0  0  0  0  0  0  0  0  0  0  0
  -40.6077   62.4696   65.9677 O   0  0  0  0  0  0  0  0  0  0  0  0
  -41.0983   62.8633   66.6621 H   0  0  0  0  0  0  0  0  0  0  0  0
  -47.1329   59.8565   66.1607 C   0  0  0  0  0  0  0  0  0  0  0  0
  -47.2571   60.9559   65.1333 C   0  0  0  0  0  0  0  0  0  0  0  0
  -48.5913   61.4128   64.7132 C   0  0  0  0  0  0  0  0  0  0  0  0
  -49.8032   60.6285   65.1499 C   0  0  0  0  0  0  0  0  0  0  0  0
  -50.5855   60.1263   63.9412 C   0  0  0  0  0  0  0  0  0  0  0  0
  -50.0763   58.7496   63.5152 C   0  0  0  0  0  0  0  0  0  0  0  0
  -49.6391   58.7362   62.0512 C   0  0  0  0  0  0  0  0  0  0  0  0
  -50.2529   57.5628   61.2831 C   0  0  0  0  0  0  0  0  0  0  0  0
  -50.5731   57.9056   59.8306 C   0  0  0  0  0  0  0  0  0  0  0  0
  7  8  2  0  0  0
  7  6  1  0  0  0
  7  9  1  0  0  0
  6  5  1  0  0  0
  9 10  1  0  0  0
  5  4  1  0  0  0
  4  3  1  0  0  0
  3  2  1  0  0  0
  2  1  1  0  0  0
  1 11  1  0  0  0
 11 12  1  0  0  0
 12 13  2  0  0  0
 13 14  1  0  0  0
 14 15  1  0  0  0
 15 16  1  0  0  0
 16 17  1  0  0  0
 17 18  1  0  0  0
 18 19  1  0  0  0
M  END
> <minimizedAffinity>
-6.57749

> <CNNscore>
0.7883413434

> <CNNaffinity>
6.2228403091

> <CNN_VS>
4.9057221413

> <CNNaffinity_variance>
0.4365573823

$$$$
/media/chris/experiments/cd1a-new-docking/inputs/ligands/4x6d_2_ligand.pdb


 19 18  0  0  0  0  0  0  0  0999 V2000
  -46.2201   58.1630   65.4129 C   0  0  0  0  0  0  0  0  0  0  0  0
  -45.0332   58.0509   64.4660 C   0  0  0  0  0  0  0  0  0  0  0  0
  -43.7697   57.5853   65.1693 C   0  0  0  0  0  0  0  0  0  0  0  0
  -43.3772   58.5762   66.2528 C   0  0  0  0  0  0  0  0  0  0  0  0
  -41.8653   58.7113   66.2736 C   0  0  0  0  0  0  0  0  0  0  0  0
  -41.3199   59.1473   64.9229 C   0  0  0  0  0  0  0  0  0  0  0  0
  -39.8285   58.9230   64.8961 C   0  0  0  0  0  0  0  0  0  0  0  0
  -39.0639   59.7421   65.4422 O   0  0  0  0  0  0  0  0  0  0  0  0
  -39.3341   57.9259   64.3286 O   0  0  0  0  0  0  0  0  0  0  0  0
  -39.8922   57.2989   63.9125 H   0  0  0  0  0  0  0  0  0  0  0  0
  -47.4438   58.4783   64.5650 C   0  0  0  0  0  0  0  0  0  0  0  0
  -48.7177   58.4036   65.3720 C   0  0  0  0  0  0  0  0  0  0  0  0
  -49.9494   59.0135   64.8465 C   0  0  0  0  0  0  0  0  0  0  0  0
  -49.8664   59.8881   63.6207 C   0  0  0  0  0  0  0  0  0  0  0  0
  -50.8042   59.3805   62.5308 C   0  0  0  0  0  0  0  0  0  0  0  0
  -50.3552   58.0026   62.0448 C   0  0  0  0  0  0  0  0  0  0  0  0
  -50.4813   57.8689   60.5280 C   0  0  0  0  0  0  0  0  0  0  0  0
  -49.4041   58.6707   59.7930 C   0  0  0  0  0  0  0  0  0  0  0  0
  -48.2578   57.8000   59.2853 C   0  0  0  0  0  0  0  0  0  0  0  0
  7  8  2  0  0  0
  7  6  1  0  0  0
  7  9  1  0  0  0
  6  5  1  0  0  0
  9 10  1  0  0  0
  5  4  1  0  0  0
  4  3  1  0  0  0
  3  2  1  0  0  0
  2  1  1  0  0  0
  1 11  1  0  0  0
 11 12  1  0  0  0
 12 13  2  0  0  0
 13 14  1  0  0  0
 14 15  1  0  0  0
 15 16  1  0  0  0
 16 17  1  0  0  0
 17 18  1  0  0  0
 18 19  1  0  0  0
M  END
> <minimizedAffinity>
-6.47352

> <CNNscore>
0.7429319024

> <CNNaffinity>
6.4067907333

> <CNN_VS>
4.7598090172

> <CNNaffinity_variance>
0.3161942065

$$$$
/media/chris/experiments/cd1a-new-docking/inputs/ligands/4x6d_2_ligand.pdb


 19 18  0  0  0  0  0  0  0  0999 V2000
  -43.4696   58.5245   64.8008 C   0  0  0  0  0  0  0  0  0  0  0  0
  -43.7908   59.9826   65.0984 C   0  0  0  0  0  0  0  0  0  0  0  0
  -42.9246   60.9435   64.3019 C   0  0  0  0  0  0  0  0  0  0  0  0
  -41.6124   60.2762   63.9239 C   0  0  0  0  0  0  0  0  0  0  0  0
  -41.0390   60.9721   62.7027 C   0  0  0  0  0  0  0  0  0  0  0  0
  -39.5676   60.6431   62.5056 C   0  0  0  0  0  0  0  0  0  0  0  0
  -39.1711   60.9792   61.0895 C   0  0  0  0  0  0  0  0  0  0  0  0
  -40.0457   61.1163   60.2119 O   0  0  0  0  0  0  0  0  0  0  0  0
  -37.9718   61.1209   60.7696 O   0  0  0  0  0  0  0  0  0  0  0  0
  -37.2998   61.0218   61.4150 H   0  0  0  0  0  0  0  0  0  0  0  0
  -44.7937   57.8092   64.5751 C   0  0  0  0  0  0  0  0  0  0  0  0
  -45.4504   57.4236   65.8789 C   0  0  0  0  0  0  0  0  0  0  0  0
  -46.9114   57.5312   66.0182 C   0  0  0  0  0  0  0  0  0  0  0  0
  -47.6990   58.2289   64.9378 C   0  0  0  0  0  0  0  0  0  0  0  0
  -49.0529   58.6882   65.4678 C   0  0  0  0  0  0  0  0  0  0  0  0
  -50.0613   58.7948   64.3242 C   0  0  0  0  0  0  0  0  0  0  0  0
  -49.4315   58.4355   62.9792 C   0  0  0  0  0  0  0  0  0  0  0  0
  -50.2028   59.0467   61.8066 C   0  0  0  0  0  0  0  0  0  0  0  0
  -49.7429   58.5158   60.4515 C   0  0  0  0  0  0  0  0  0  0  0  0
  7  8  2  0  0  0
  7  6  1  0  0  0
  7  9  1  0  0  0
  6  5  1  0  0  0
  9 10  1  0  0  0
  5  4  1  0  0  0
  4  3  1  0  0  0
  3  2  1  0  0  0
  2  1  1  0  0  0
  1 11  1  0  0  0
 11 12  1  0  0  0
 12 13  2  0  0  0
 13 14  1  0  0  0
 14 15  1  0  0  0
 15 16  1  0  0  0
 16 17  1  0  0  0
 17 18  1  0  0  0
 18 19  1  0  0  0
M  END
> <minimizedAffinity>
-6.65718

> <CNNscore>
0.7341217995

> <CNNaffinity>
6.3112602234

> <CNN_VS>
4.6332335472

> <CNNaffinity_variance>
0.5137766600

$$$$
/media/chris/experiments/cd1a-new-docking/inputs/ligands/4x6d_2_ligand.pdb


 19 18  0  0  0  0  0  0  0  0999 V2000
  -45.4604   57.4652   65.7402 C   0  0  0  0  0  0  0  0  0  0  0  0
  -44.6414   57.8827   64.5266 C   0  0  0  0  0  0  0  0  0  0  0  0
  -43.5537   58.8843   64.8752 C   0  0  0  0  0  0  0  0  0  0  0  0
  -42.6988   58.3545   66.0148 C   0  0  0  0  0  0  0  0  0  0  0  0
  -41.9089   59.5037   66.6145 C   0  0  0  0  0  0  0  0  0  0  0  0
  -40.6872   59.8457   65.7764 C   0  0  0  0  0  0  0  0  0  0  0  0
  -40.6970   61.3222   65.4676 C   0  0  0  0  0  0  0  0  0  0  0  0
  -41.6074   61.8080   64.7682 O   0  0  0  0  0  0  0  0  0  0  0  0
  -39.8008   62.0792   65.8972 O   0  0  0  0  0  0  0  0  0  0  0  0
  -39.1079   61.7330   66.4245 H   0  0  0  0  0  0  0  0  0  0  0  0
  -46.7920   58.1972   65.6577 C   0  0  0  0  0  0  0  0  0  0  0  0
  -46.8142   59.4194   66.5439 C   0  0  0  0  0  0  0  0  0  0  0  0
  -47.6011   60.5961   66.1420 C   0  0  0  0  0  0  0  0  0  0  0  0
  -48.1902   60.6420   64.7545 C   0  0  0  0  0  0  0  0  0  0  0  0
  -49.6562   61.0583   64.8039 C   0  0  0  0  0  0  0  0  0  0  0  0
  -50.5220   60.0381   64.0652 C   0  0  0  0  0  0  0  0  0  0  0  0
  -49.6890   58.8804   63.5170 C   0  0  0  0  0  0  0  0  0  0  0  0
  -50.2806   58.3140   62.2237 C   0  0  0  0  0  0  0  0  0  0  0  0
  -49.2274   58.0647   61.1475 C   0  0  0  0  0  0  0  0  0  0  0  0
  7  8  2  0  0  0
  7  6  1  0  0  0
  7  9  1  0  0  0
  6  5  1  0  0  0
  9 10  1  0  0  0
  5  4  1  0  0  0
  4  3  1  0  0  0
  3  2  1  0  0  0
  2  1  1  0  0  0
  1 11  1  0  0  0
 11 12  1  0  0  0
 12 13  2  0  0  0
 13 14  1  0  0  0
 14 15  1  0  0  0
 15 16  1  0  0  0
 16 17  1  0  0  0
 17 18  1  0  0  0
 18 19  1  0  0  0
M  END
> <minimizedAffinity>
-6.58956

> <CNNscore>
0.6504359841

> <CNNaffinity>
6.1264405251

> <CNN_VS>
3.9848573208

> <CNNaffinity_variance>
0.2738254666

$$$$
/media/chris/experiments/cd1a-new-docking/inputs/ligands/4x6d_2_ligand.pdb


 19 18  0  0  0  0  0  0  0  0999 V2000
  -50.8753   60.1559   63.6883 C   0  0  0  0  0  0  0  0  0  0  0  0
  -50.6615   59.6568   62.2659 C   0  0  0  0  0  0  0  0  0  0  0  0
  -50.3590   58.1691   62.2106 C   0  0  0  0  0  0  0  0  0  0  0  0
  -50.5837   57.6402   60.8036 C   0  0  0  0  0  0  0  0  0  0  0  0
  -49.7374   58.4444   59.8333 C   0  0  0  0  0  0  0  0  0  0  0  0
  -49.3547   57.6281   58.6090 C   0  0  0  0  0  0  0  0  0  0  0  0
  -48.0456   56.9261   58.8721 C   0  0  0  0  0  0  0  0  0  0  0  0
  -48.0008   55.6809   58.9077 O   0  0  0  0  0  0  0  0  0  0  0  0
  -46.9925   57.5707   59.0623 O   0  0  0  0  0  0  0  0  0  0  0  0
  -47.0057   58.5073   59.0395 H   0  0  0  0  0  0  0  0  0  0  0  0
  -50.0369   59.2763   64.6044 C   0  0  0  0  0  0  0  0  0  0  0  0
  -49.7848   59.9380   65.9380 C   0  0  0  0  0  0  0  0  0  0  0  0
  -48.5743   60.7524   66.1295 C   0  0  0  0  0  0  0  0  0  0  0  0
  -47.5038   60.7314   65.0675 C   0  0  0  0  0  0  0  0  0  0  0  0
  -46.5624   59.5497   65.2733 C   0  0  0  0  0  0  0  0  0  0  0  0
  -45.8634   59.6589   66.6282 C   0  0  0  0  0  0  0  0  0  0  0  0
  -44.3466   59.7630   66.4756 C   0  0  0  0  0  0  0  0  0  0  0  0
  -43.9045   59.5671   65.0231 C   0  0  0  0  0  0  0  0  0  0  0  0
  -43.0390   60.7128   64.5056 C   0  0  0  0  0  0  0  0  0  0  0  0
  7  8  2  0  0  0
  7  6  1  0  0  0
  7  9  1  0  0  0
  6  5  1  0  0  0
  9 10  1  0  0  0
  5  4  1  0  0  0
  4  3  1  0  0  0
  3  2  1  0  0  0
  2  1  1  0  0  0
  1 11  1  0  0  0
 11 12  1  0  0  0
 12 13  2  0  0  0
 13 14  1  0  0  0
 14 15  1  0  0  0
 15 16  1  0  0  0
 16 17  1  0  0  0
 17 18  1  0  0  0
 18 19  1  0  0  0
M  END
> <minimizedAffinity>
-6.92116

> <CNNscore>
0.6193391085

> <CNNaffinity>
6.1325082779

> <CNN_VS>
3.7981021404

> <CNNaffinity_variance>
0.3025563061

$$$$
/media/chris/experiments/cd1a-new-docking/inputs/ligands/4x6d_2_ligand.pdb


 19 18  0  0  0  0  0  0  0  0999 V2000
  -44.7658   60.4364   65.2789 C   0  0  0  0  0  0  0  0  0  0  0  0
  -43.9048   59.6897   66.2884 C   0  0  0  0  0  0  0  0  0  0  0  0
  -42.4357   60.0639   66.1896 C   0  0  0  0  0  0  0  0  0  0  0  0
  -41.6147   58.8574   65.7651 C   0  0  0  0  0  0  0  0  0  0  0  0
  -40.2975   59.3372   65.1828 C   0  0  0  0  0  0  0  0  0  0  0  0
  -39.5356   58.2082   64.5069 C   0  0  0  0  0  0  0  0  0  0  0  0
  -38.0545   58.4525   64.6558 C   0  0  0  0  0  0  0  0  0  0  0  0
  -37.2406   57.7753   63.9980 O   0  0  0  0  0  0  0  0  0  0  0  0
  -37.6178   59.3252   65.4358 O   0  0  0  0  0  0  0  0  0  0  0  0
  -38.2137   59.8445   65.9390 H   0  0  0  0  0  0  0  0  0  0  0  0
  -46.2137   60.0582   65.5557 C   0  0  0  0  0  0  0  0  0  0  0  0
  -46.3183   58.7357   66.2766 C   0  0  0  0  0  0  0  0  0  0  0  0
  -47.3386   57.7595   65.8628 C   0  0  0  0  0  0  0  0  0  0  0  0
  -48.3986   58.1836   64.8774 C   0  0  0  0  0  0  0  0  0  0  0  0
  -49.7327   58.4054   65.5818 C   0  0  0  0  0  0  0  0  0  0  0  0
  -50.2993   59.7789   65.2234 C   0  0  0  0  0  0  0  0  0  0  0  0
  -49.9146   60.1971   63.8050 C   0  0  0  0  0  0  0  0  0  0  0  0
  -51.0025   59.8383   62.7896 C   0  0  0  0  0  0  0  0  0  0  0  0
  -50.6352   58.6351   61.9252 C   0  0  0  0  0  0  0  0  0  0  0  0
  7  8  2  0  0  0
  7  6  1  0  0  0
  7  9  1  0  0  0
  6  5  1  0  0  0
  9 10  1  0  0  0
  5  4  1  0  0  0
  4  3  1  0  0  0
  3  2  1  0  0  0
  2  1  1  0  0  0
  1 11  1  0  0  0
 11 12  1  0  0  0
 12 13  2  0  0  0
 13 14  1  0  0  0
 14 15  1  0  0  0
 15 16  1  0  0  0
 16 17  1  0  0  0
 17 18  1  0  0  0
 18 19  1  0  0  0
M  END
> <minimizedAffinity>
-6.30548

> <CNNscore>
0.5883588791

> <CNNaffinity>
6.0934572220

> <CNN_VS>
3.5851397514

> <CNNaffinity_variance>
0.2432128936

$$$$
/media/chris/experiments/cd1a-new-docking/inputs/ligands/4x6d_2_ligand.pdb


 19 18  0  0  0  0  0  0  0  0999 V2000
  -50.0869   59.7932   63.5358 C   0  0  0  0  0  0  0  0  0  0  0  0
  -50.5809   59.4217   62.1445 C   0  0  0  0  0  0  0  0  0  0  0  0
  -50.3008   57.9697   61.7961 C   0  0  0  0  0  0  0  0  0  0  0  0
  -50.7816   57.6666   60.3865 C   0  0  0  0  0  0  0  0  0  0  0  0
  -49.7410   58.1543   59.3948 C   0  0  0  0  0  0  0  0  0  0  0  0
  -48.3374   57.7292   59.7960 C   0  0  0  0  0  0  0  0  0  0  0  0
  -47.7331   56.9071   58.6849 C   0  0  0  0  0  0  0  0  0  0  0  0
  -47.2530   57.4699   57.6817 O   0  0  0  0  0  0  0  0  0  0  0  0
  -47.7058   55.6595   58.7443 O   0  0  0  0  0  0  0  0  0  0  0  0
  -48.0617   55.2179   59.4902 H   0  0  0  0  0  0  0  0  0  0  0  0
  -48.7848   59.0402   63.7668 C   0  0  0  0  0  0  0  0  0  0  0  0
  -48.8319   58.2161   65.0310 C   0  0  0  0  0  0  0  0  0  0  0  0
  -47.5790   57.8618   65.7165 C   0  0  0  0  0  0  0  0  0  0  0  0
  -46.2660   58.1391   65.0284 C   0  0  0  0  0  0  0  0  0  0  0  0
  -45.0994   57.6204   65.8622 C   0  0  0  0  0  0  0  0  0  0  0  0
  -43.7957   57.7229   65.0710 C   0  0  0  0  0  0  0  0  0  0  0  0
  -42.5874   57.8916   65.9909 C   0  0  0  0  0  0  0  0  0  0  0  0
  -42.1403   59.3528   66.0832 C   0  0  0  0  0  0  0  0  0  0  0  0
  -42.6671   60.2093   64.9350 C   0  0  0  0  0  0  0  0  0  0  0  0
  7  8  2  0  0  0
  7  6  1  0  0  0
  7  9  1  0  0  0
  6  5  1  0  0  0
  9 10  1  0  0  0
  5  4  1  0  0  0
  4  3  1  0  0  0
  3  2  1  0  0  0
  2  1  1  0  0  0
  1 11  1  0  0  0
 11 12  1  0  0  0
 12 13  2  0  0  0
 13 14  1  0  0  0
 14 15  1  0  0  0
 15 16  1  0  0  0
 16 17  1  0  0  0
 17 18  1  0  0  0
 18 19  1  0  0  0
M  END
> <minimizedAffinity>
-6.81547

> <CNNscore>
0.5867476463

> <CNNaffinity>
6.3427953720

> <CNN_VS>
3.7216203213

> <CNNaffinity_variance>
0.5901228786

$$$$
/media/chris/experiments/cd1a-new-docking/inputs/ligands/4x6d_2_ligand.pdb


 19 18  0  0  0  0  0  0  0  0999 V2000
  -47.3821   59.5415   66.5713 C   0  0  0  0  0  0  0  0  0  0  0  0
  -48.7714   59.9898   66.1392 C   0  0  0  0  0  0  0  0  0  0  0  0
  -49.1951   59.3766   64.8154 C   0  0  0  0  0  0  0  0  0  0  0  0
  -50.0592   60.3551   64.0370 C   0  0  0  0  0  0  0  0  0  0  0  0
  -50.7570   59.6108   62.9130 C   0  0  0  0  0  0  0  0  0  0  0  0
  -50.0292   58.3259   62.5509 C   0  0  0  0  0  0  0  0  0  0  0  0
  -50.2873   58.0033   61.1001 C   0  0  0  0  0  0  0  0  0  0  0  0
  -49.6110   58.5521   60.2084 O   0  0  0  0  0  0  0  0  0  0  0  0
  -51.1771   57.1925   60.7658 O   0  0  0  0  0  0  0  0  0  0  0  0
  -51.6961   56.7697   61.4214 H   0  0  0  0  0  0  0  0  0  0  0  0
  -46.5389   59.4123   65.3111 C   0  0  0  0  0  0  0  0  0  0  0  0
  -45.5352   60.5341   65.1923 C   0  0  0  0  0  0  0  0  0  0  0  0
  -44.0974   60.2388   65.2959 C   0  0  0  0  0  0  0  0  0  0  0  0
  -43.6639   58.8631   65.7363 C   0  0  0  0  0  0  0  0  0  0  0  0
  -42.2618   58.9046   66.3342 C   0  0  0  0  0  0  0  0  0  0  0  0
  -41.2618   58.2426   65.3867 C   0  0  0  0  0  0  0  0  0  0  0  0
  -40.3292   59.2673   64.7424 C   0  0  0  0  0  0  0  0  0  0  0  0
  -39.2380   58.5974   63.9033 C   0  0  0  0  0  0  0  0  0  0  0  0
  -38.0292   58.1704   64.7317 C   0  0  0  0  0  0  0  0  0  0  0  0
  7  8  2  0  0  0
  7  6  1  0  0  0
  7  9  1  0  0  0
  6  5  1  0  0  0
  9 10  1  0  0  0
  5  4  1  0  0  0
  4  3  1  0  0  0
  3  2  1  0  0  0
  2  1  1  0  0  0
  1 11  1  0  0  0
 11 12  1  0  0  0
 12 13  2  0  0  0
 13 14  1  0  0  0
 14 15  1  0  0  0
 15 16  1  0  0  0
 16 17  1  0  0  0
 17 18  1  0  0  0
 18 19  1  0  0  0
M  END
> <minimizedAffinity>
-6.28866

> <CNNscore>
0.5651765466

> <CNNaffinity>
5.9583125114

> <CNN_VS>
3.3674983978

> <CNNaffinity_variance>
0.5090317130

$$$$
