/media/chris/experiments/cd1a-new-docking/inputs/ligands/4x6d_2_ligand.pdb


 19 18  0  0  0  0  0  0  0  0999 V2000
  -46.7855   58.1739   66.4435 C   0  0  0  0  0  0  0  0  0  0  0  0
  -46.1251   59.5167   66.7240 C   0  0  0  0  0  0  0  0  0  0  0  0
  -44.6468   59.5226   66.3733 C   0  0  0  0  0  0  0  0  0  0  0  0
  -44.4025   60.3857   65.1463 C   0  0  0  0  0  0  0  0  0  0  0  0
  -42.9308   60.3175   64.7803 C   0  0  0  0  0  0  0  0  0  0  0  0
  -42.5262   61.4561   63.8575 C   0  0  0  0  0  0  0  0  0  0  0  0
  -41.3631   61.0125   63.0054 C   0  0  0  0  0  0  0  0  0  0  0  0
  -40.5125   60.2284   63.4694 O   0  0  0  0  0  0  0  0  0  0  0  0
  -41.2272   61.4208   61.8325 O   0  0  0  0  0  0  0  0  0  0  0  0
  -41.8562   62.0107   61.4660 H   0  0  0  0  0  0  0  0  0  0  0  0
  -47.5374   58.3087   65.1274 C   0  0  0  0  0  0  0  0  0  0  0  0
  -48.9534   58.7883   65.3388 C   0  0  0  0  0  0  0  0  0  0  0  0
  -49.9246   58.6994   64.2370 C   0  0  0  0  0  0  0  0  0  0  0  0
  -49.4338   58.3374   62.8577 C   0  0  0  0  0  0  0  0  0  0  0  0
  -50.4314   58.7847   61.7948 C   0  0  0  0  0  0  0  0  0  0  0  0
  -50.8848   57.5893   60.9571 C   0  0  0  0  0  0  0  0  0  0  0  0
  -49.7131   56.9312   60.2299 C   0  0  0  0  0  0  0  0  0  0  0  0
  -49.1015   57.8587   59.1769 C   0  0  0  0  0  0  0  0  0  0  0  0
  -47.5752   57.8360   59.1795 C   0  0  0  0  0  0  0  0  0  0  0  0
  7  8  2  0  0  0
  7  6  1  0  0  0
  7  9  1  0  0  0
  6  5  1  0  0  0
  9 10  1  0  0  0
  5  4  1  0  0  0
  4  3  1  0  0  0
  3  2  1  0  0  0
  2  1  1  0  0  0
  1 11  1  0  0  0
 11 12  1  0  0  0
 12 13  2  0  0  0
 13 14  1  0  0  0
 14 15  1  0  0  0
 15 16  1  0  0  0
 16 17  1  0  0  0
 17 18  1  0  0  0
 18 19  1  0  0  0
M  END
> <minimizedAffinity>
-6.71298

> <CNNscore>
0.8044496775

> <CNNaffinity>
6.5090050697

> <CNN_VS>
5.2361669540

> <CNNaffinity_variance>
0.5588161349

$$$$
/media/chris/experiments/cd1a-new-docking/inputs/ligands/4x6d_2_ligand.pdb


 19 18  0  0  0  0  0  0  0  0999 V2000
  -47.8807   61.0069   65.7542 C   0  0  0  0  0  0  0  0  0  0  0  0
  -46.7070   60.0959   65.4221 C   0  0  0  0  0  0  0  0  0  0  0  0
  -45.9873   59.5981   66.6640 C   0  0  0  0  0  0  0  0  0  0  0  0
  -44.5885   59.1241   66.3048 C   0  0  0  0  0  0  0  0  0  0  0  0
  -43.7560   60.3206   65.8805 C   0  0  0  0  0  0  0  0  0  0  0  0
  -42.6796   60.6492   66.9027 C   0  0  0  0  0  0  0  0  0  0  0  0
  -41.3400   60.7010   66.2110 C   0  0  0  0  0  0  0  0  0  0  0  0
  -40.8393   61.7997   65.9014 O   0  0  0  0  0  0  0  0  0  0  0  0
  -40.7143   59.6560   65.9330 O   0  0  0  0  0  0  0  0  0  0  0  0
  -41.0743   58.8206   66.1576 H   0  0  0  0  0  0  0  0  0  0  0  0
  -48.7326   61.1190   64.4983 C   0  0  0  0  0  0  0  0  0  0  0  0
  -50.1816   60.7970   64.7748 C   0  0  0  0  0  0  0  0  0  0  0  0
  -50.9674   60.0582   63.7738 C   0  0  0  0  0  0  0  0  0  0  0  0
  -50.3770   59.8296   62.4050 C   0  0  0  0  0  0  0  0  0  0  0  0
  -49.9779   58.3688   62.2262 C   0  0  0  0  0  0  0  0  0  0  0  0
  -50.7607   57.7431   61.0721 C   0  0  0  0  0  0  0  0  0  0  0  0
  -50.1733   58.1287   59.7153 C   0  0  0  0  0  0  0  0  0  0  0  0
  -49.0586   57.1724   59.2835 C   0  0  0  0  0  0  0  0  0  0  0  0
  -47.6800   57.8277   59.2845 C   0  0  0  0  0  0  0  0  0  0  0  0
  7  8  2  0  0  0
  7  6  1  0  0  0
  7  9  1  0  0  0
  6  5  1  0  0  0
  9 10  1  0  0  0
  5  4  1  0  0  0
  4  3  1  0  0  0
  3  2  1  0  0  0
  2  1  1  0  0  0
  1 11  1  0  0  0
 11 12  1  0  0  0
 12 13  2  0  0  0
 13 14  1  0  0  0
 14 15  1  0  0  0
 15 16  1  0  0  0
 16 17  1  0  0  0
 17 18  1  0  0  0
 18 19  1  0  0  0
M  END
> <minimizedAffinity>
-6.98384

> <CNNscore>
0.8010801077

> <CNNaffinity>
6.1606087685

> <CNN_VS>
4.9351410866

> <CNNaffinity_variance>
0.3290122151

$$$$
/media/chris/experiments/cd1a-new-docking/inputs/ligands/4x6d_2_ligand.pdb


 19 18  0  0  0  0  0  0  0  0999 V2000
  -48.5426   57.9767   65.2736 C   0  0  0  0  0  0  0  0  0  0  0  0
  -47.3160   58.5913   65.9334 C   0  0  0  0  0  0  0  0  0  0  0  0
  -46.0872   57.7055   65.8165 C   0  0  0  0  0  0  0  0  0  0  0  0
  -45.0328   58.3824   64.9561 C   0  0  0  0  0  0  0  0  0  0  0  0
  -44.7140   59.7441   65.5465 C   0  0  0  0  0  0  0  0  0  0  0  0
  -43.2463   60.1026   65.3762 C   0  0  0  0  0  0  0  0  0  0  0  0
  -42.5548   60.0041   66.7132 C   0  0  0  0  0  0  0  0  0  0  0  0
  -41.8827   58.9930   66.9955 O   0  0  0  0  0  0  0  0  0  0  0  0
  -42.6442   60.9208   67.5573 O   0  0  0  0  0  0  0  0  0  0  0  0
  -43.1449   61.6888   67.3635 H   0  0  0  0  0  0  0  0  0  0  0  0
  -48.6006   58.5079   63.8487 C   0  0  0  0  0  0  0  0  0  0  0  0
  -49.8115   59.3820   63.6266 C   0  0  0  0  0  0  0  0  0  0  0  0
  -50.7341   59.0808   62.5205 C   0  0  0  0  0  0  0  0  0  0  0  0
  -50.3378   58.0431   61.5004 C   0  0  0  0  0  0  0  0  0  0  0  0
  -50.0888   58.6889   60.1418 C   0  0  0  0  0  0  0  0  0  0  0  0
  -49.6111   57.6412   59.1365 C   0  0  0  0  0  0  0  0  0  0  0  0
  -48.0875   57.5272   59.1193 C   0  0  0  0  0  0  0  0  0  0  0  0
  -47.5191   57.6907   57.7074 C   0  0  0  0  0  0  0  0  0  0  0  0
  -46.4363   58.7633   57.6232 C   0  0  0  0  0  0  0  0  0  0  0  0
  7  8  2  0  0  0
  7  6  1  0  0  0
  7  9  1  0  0  0
  6  5  1  0  0  0
  9 10  1  0  0  0
  5  4  1  0  0  0
  4  3  1  0  0  0
  3  2  1  0  0  0
  2  1  1  0  0  0
  1 11  1  0  0  0
 11 12  1  0  0  0
 12 13  2  0  0  0
 13 14  1  0  0  0
 14 15  1  0  0  0
 15 16  1  0  0  0
 16 17  1  0  0  0
 17 18  1  0  0  0
 18 19  1  0  0  0
M  END
> <minimizedAffinity>
-7.01764

> <CNNscore>
0.7737258673

> <CNNaffinity>
6.4599990845

> <CNN_VS>
4.9982686043

> <CNNaffinity_variance>
0.5864675045

$$$$
/media/chris/experiments/cd1a-new-docking/inputs/ligands/4x6d_2_ligand.pdb


 19 18  0  0  0  0  0  0  0  0999 V2000
  -45.5286   57.8578   65.7346 C   0  0  0  0  0  0  0  0  0  0  0  0
  -44.2782   57.9278   64.8689 C   0  0  0  0  0  0  0  0  0  0  0  0
  -43.2246   58.8598   65.4429 C   0  0  0  0  0  0  0  0  0  0  0  0
  -41.8646   58.1812   65.4362 C   0  0  0  0  0  0  0  0  0  0  0  0
  -40.8622   59.0920   64.7507 C   0  0  0  0  0  0  0  0  0  0  0  0
  -39.4880   58.4482   64.6567 C   0  0  0  0  0  0  0  0  0  0  0  0
  -38.9537   58.6250   63.2572 C   0  0  0  0  0  0  0  0  0  0  0  0
  -39.0920   59.7154   62.6692 O   0  0  0  0  0  0  0  0  0  0  0  0
  -38.3726   57.6919   62.6634 O   0  0  0  0  0  0  0  0  0  0  0  0
  -38.2590   56.8648   63.0888 H   0  0  0  0  0  0  0  0  0  0  0  0
  -46.6994   58.3033   64.8706 C   0  0  0  0  0  0  0  0  0  0  0  0
  -48.0154   58.1660   65.5981 C   0  0  0  0  0  0  0  0  0  0  0  0
  -49.2747   58.4131   64.8781 C   0  0  0  0  0  0  0  0  0  0  0  0
  -49.2202   59.0098   63.4942 C   0  0  0  0  0  0  0  0  0  0  0  0
  -49.4289   57.9342   62.4338 C   0  0  0  0  0  0  0  0  0  0  0  0
  -50.4177   58.4195   61.3740 C   0  0  0  0  0  0  0  0  0  0  0  0
  -49.7047   58.8778   60.1027 C   0  0  0  0  0  0  0  0  0  0  0  0
  -48.9152   57.7404   59.4497 C   0  0  0  0  0  0  0  0  0  0  0  0
  -47.6586   58.2251   58.7315 C   0  0  0  0  0  0  0  0  0  0  0  0
  7  8  2  0  0  0
  7  6  1  0  0  0
  7  9  1  0  0  0
  6  5  1  0  0  0
  9 10  1  0  0  0
  5  4  1  0  0  0
  4  3  1  0  0  0
  3  2  1  0  0  0
  2  1  1  0  0  0
  1 11  1  0  0  0
 11 12  1  0  0  0
 12 13  2  0  0  0
 13 14  1  0  0  0
 14 15  1  0  0  0
 15 16  1  0  0  0
 16 17  1  0  0  0
 17 18  1  0  0  0
 18 19  1  0  0  0
M  END
> <minimizedAffinity>
-6.44126

> <CNNscore>
0.7571865320

> <CNNaffinity>
6.4669952393

> <CNN_VS>
4.8967218399

> <CNNaffinity_variance>
0.6962794065

$$$$
/media/chris/experiments/cd1a-new-docking/inputs/ligands/4x6d_2_ligand.pdb


 19 18  0  0  0  0  0  0  0  0999 V2000
  -44.7510   59.3717   65.4436 C   0  0  0  0  0  0  0  0  0  0  0  0
  -43.5229   59.4382   64.5463 C   0  0  0  0  0  0  0  0  0  0  0  0
  -42.9903   60.8527   64.3929 C   0  0  0  0  0  0  0  0  0  0  0  0
  -41.4755   60.8321   64.2693 C   0  0  0  0  0  0  0  0  0  0  0  0
  -41.0980   60.9740   62.8058 C   0  0  0  0  0  0  0  0  0  0  0  0
  -39.7090   60.4227   62.5261 C   0  0  0  0  0  0  0  0  0  0  0  0
  -39.2271   60.9476   61.1965 C   0  0  0  0  0  0  0  0  0  0  0  0
  -40.0378   61.1361   60.2687 O   0  0  0  0  0  0  0  0  0  0  0  0
  -38.0190   61.1969   60.9984 O   0  0  0  0  0  0  0  0  0  0  0  0
  -37.3943   61.0616   61.6835 H   0  0  0  0  0  0  0  0  0  0  0  0
  -45.6900   58.3347   64.8448 C   0  0  0  0  0  0  0  0  0  0  0  0
  -46.8097   57.9801   65.7936 C   0  0  0  0  0  0  0  0  0  0  0  0
  -48.2004   57.9840   65.3127 C   0  0  0  0  0  0  0  0  0  0  0  0
  -48.5002   58.5524   63.9484 C   0  0  0  0  0  0  0  0  0  0  0  0
  -49.9537   59.0047   63.8592 C   0  0  0  0  0  0  0  0  0  0  0  0
  -50.5494   58.6103   62.5080 C   0  0  0  0  0  0  0  0  0  0  0  0
  -49.6558   59.0449   61.3473 C   0  0  0  0  0  0  0  0  0  0  0  0
  -50.0079   58.3116   60.0505 C   0  0  0  0  0  0  0  0  0  0  0  0
  -50.1045   56.7989   60.2305 C   0  0  0  0  0  0  0  0  0  0  0  0
  7  8  2  0  0  0
  7  6  1  0  0  0
  7  9  1  0  0  0
  6  5  1  0  0  0
  9 10  1  0  0  0
  5  4  1  0  0  0
  4  3  1  0  0  0
  3  2  1  0  0  0
  2  1  1  0  0  0
  1 11  1  0  0  0
 11 12  1  0  0  0
 12 13  2  0  0  0
 13 14  1  0  0  0
 14 15  1  0  0  0
 15 16  1  0  0  0
 16 17  1  0  0  0
 17 18  1  0  0  0
 18 19  1  0  0  0
M  END
> <minimizedAffinity>
-6.55383

> <CNNscore>
0.7224376202

> <CNNaffinity>
6.3173875809

> <CNN_VS>
4.5639185905

> <CNNaffinity_variance>
0.7478731275

$$$$
/media/chris/experiments/cd1a-new-docking/inputs/ligands/4x6d_2_ligand.pdb


 19 18  0  0  0  0  0  0  0  0999 V2000
  -44.9071   60.4690   65.3337 C   0  0  0  0  0  0  0  0  0  0  0  0
  -44.2709   59.5762   66.3901 C   0  0  0  0  0  0  0  0  0  0  0  0
  -42.9407   60.1181   66.8854 C   0  0  0  0  0  0  0  0  0  0  0  0
  -41.8133   59.1757   66.4970 C   0  0  0  0  0  0  0  0  0  0  0  0
  -41.1606   59.6853   65.2246 C   0  0  0  0  0  0  0  0  0  0  0  0
  -39.6461   59.7347   65.3489 C   0  0  0  0  0  0  0  0  0  0  0  0
  -39.2299   61.1209   65.7741 C   0  0  0  0  0  0  0  0  0  0  0  0
  -38.0553   61.3385   66.1303 O   0  0  0  0  0  0  0  0  0  0  0  0
  -40.0452   62.0676   65.7826 O   0  0  0  0  0  0  0  0  0  0  0  0
  -40.9326   61.9239   65.5183 H   0  0  0  0  0  0  0  0  0  0  0  0
  -46.4154   60.3115   65.4608 C   0  0  0  0  0  0  0  0  0  0  0  0
  -47.1540   61.4563   64.8100 C   0  0  0  0  0  0  0  0  0  0  0  0
  -48.5998   61.3423   64.5609 C   0  0  0  0  0  0  0  0  0  0  0  0
  -49.2721   60.0067   64.7575 C   0  0  0  0  0  0  0  0  0  0  0  0
  -50.6367   59.9838   64.0775 C   0  0  0  0  0  0  0  0  0  0  0  0
  -50.4728   60.0337   62.5587 C   0  0  0  0  0  0  0  0  0  0  0  0
  -50.6601   58.6565   61.9239 C   0  0  0  0  0  0  0  0  0  0  0  0
  -49.3821   58.1652   61.2393 C   0  0  0  0  0  0  0  0  0  0  0  0
  -49.3602   58.4578   59.7413 C   0  0  0  0  0  0  0  0  0  0  0  0
  7  8  2  0  0  0
  7  6  1  0  0  0
  7  9  1  0  0  0
  6  5  1  0  0  0
  9 10  1  0  0  0
  5  4  1  0  0  0
  4  3  1  0  0  0
  3  2  1  0  0  0
  2  1  1  0  0  0
  1 11  1  0  0  0
 11 12  1  0  0  0
 12 13  2  0  0  0
 13 14  1  0  0  0
 14 15  1  0  0  0
 15 16  1  0  0  0
 16 17  1  0  0  0
 17 18  1  0  0  0
 18 19  1  0  0  0
M  END
> <minimizedAffinity>
-6.73783

> <CNNscore>
0.6613005996

> <CNNaffinity>
5.9288969040

> <CNN_VS>
3.9207830429

> <CNNaffinity_variance>
0.3333071768

$$$$
/media/chris/experiments/cd1a-new-docking/inputs/ligands/4x6d_2_ligand.pdb


 19 18  0  0  0  0  0  0  0  0999 V2000
  -49.5573   60.2071   65.9479 C   0  0  0  0  0  0  0  0  0  0  0  0
  -48.2479   60.9624   66.1289 C   0  0  0  0  0  0  0  0  0  0  0  0
  -47.1702   60.4982   65.1638 C   0  0  0  0  0  0  0  0  0  0  0  0
  -45.8880   60.1887   65.9190 C   0  0  0  0  0  0  0  0  0  0  0  0
  -46.1552   59.0662   66.9054 C   0  0  0  0  0  0  0  0  0  0  0  0
  -45.9661   57.6989   66.2679 C   0  0  0  0  0  0  0  0  0  0  0  0
  -44.6231   57.6544   65.5824 C   0  0  0  0  0  0  0  0  0  0  0  0
  -44.5584   57.5595   64.3412 O   0  0  0  0  0  0  0  0  0  0  0  0
  -43.5602   57.7061   66.2370 O   0  0  0  0  0  0  0  0  0  0  0  0
  -43.5882   57.7775   67.1709 H   0  0  0  0  0  0  0  0  0  0  0  0
  -49.4981   59.5235   64.5895 C   0  0  0  0  0  0  0  0  0  0  0  0
  -50.5434   60.0659   63.6445 C   0  0  0  0  0  0  0  0  0  0  0  0
  -50.9276   59.2851   62.4579 C   0  0  0  0  0  0  0  0  0  0  0  0
  -50.1173   58.0673   62.0907 C   0  0  0  0  0  0  0  0  0  0  0  0
  -49.2612   58.3398   60.8587 C   0  0  0  0  0  0  0  0  0  0  0  0
  -49.9809   57.8633   59.5973 C   0  0  0  0  0  0  0  0  0  0  0  0
  -49.0068   57.6344   58.4425 C   0  0  0  0  0  0  0  0  0  0  0  0
  -47.5665   57.9726   58.8354 C   0  0  0  0  0  0  0  0  0  0  0  0
  -46.7787   58.6245   57.7020 C   0  0  0  0  0  0  0  0  0  0  0  0
  7  8  2  0  0  0
  7  6  1  0  0  0
  7  9  1  0  0  0
  6  5  1  0  0  0
  9 10  1  0  0  0
  5  4  1  0  0  0
  4  3  1  0  0  0
  3  2  1  0  0  0
  2  1  1  0  0  0
  1 11  1  0  0  0
 11 12  1  0  0  0
 12 13  2  0  0  0
 13 14  1  0  0  0
 14 15  1  0  0  0
 15 16  1  0  0  0
 16 17  1  0  0  0
 17 18  1  0  0  0
 18 19  1  0  0  0
M  END
> <minimizedAffinity>
-7.06980

> <CNNscore>
0.6493118405

> <CNNaffinity>
6.2435173988

> <CNN_VS>
4.0539898872

> <CNNaffinity_variance>
0.3870796859

$$$$
/media/chris/experiments/cd1a-new-docking/inputs/ligands/4x6d_2_ligand.pdb


 19 18  0  0  0  0  0  0  0  0999 V2000
  -50.8798   60.3460   64.3550 C   0  0  0  0  0  0  0  0  0  0  0  0
  -51.0476   59.7816   62.9511 C   0  0  0  0  0  0  0  0  0  0  0  0
  -50.1517   58.5814   62.6956 C   0  0  0  0  0  0  0  0  0  0  0  0
  -50.5543   57.8926   61.4019 C   0  0  0  0  0  0  0  0  0  0  0  0
  -49.8976   58.6096   60.2361 C   0  0  0  0  0  0  0  0  0  0  0  0
  -49.6234   57.6658   59.0761 C   0  0  0  0  0  0  0  0  0  0  0  0
  -48.2901   56.9934   59.2901 C   0  0  0  0  0  0  0  0  0  0  0  0
  -48.1826   55.7600   59.1460 O   0  0  0  0  0  0  0  0  0  0  0  0
  -47.2790   57.6504   59.6171 O   0  0  0  0  0  0  0  0  0  0  0  0
  -47.3398   58.5785   59.7303 H   0  0  0  0  0  0  0  0  0  0  0  0
  -49.4095   60.6998   64.5248 C   0  0  0  0  0  0  0  0  0  0  0  0
  -48.9189   60.3968   65.9202 C   0  0  0  0  0  0  0  0  0  0  0  0
  -47.7533   59.5183   66.1076 C   0  0  0  0  0  0  0  0  0  0  0  0
  -47.2082   58.7645   64.9206 C   0  0  0  0  0  0  0  0  0  0  0  0
  -46.1435   57.7646   65.3586 C   0  0  0  0  0  0  0  0  0  0  0  0
  -44.7892   58.1334   64.7534 C   0  0  0  0  0  0  0  0  0  0  0  0
  -43.6320   57.7145   65.6589 C   0  0  0  0  0  0  0  0  0  0  0  0
  -42.3752   58.5499   65.4021 C   0  0  0  0  0  0  0  0  0  0  0  0
  -41.7338   59.0688   66.6864 C   0  0  0  0  0  0  0  0  0  0  0  0
  7  8  2  0  0  0
  7  6  1  0  0  0
  7  9  1  0  0  0
  6  5  1  0  0  0
  9 10  1  0  0  0
  5  4  1  0  0  0
  4  3  1  0  0  0
  3  2  1  0  0  0
  2  1  1  0  0  0
  1 11  1  0  0  0
 11 12  1  0  0  0
 12 13  2  0  0  0
 13 14  1  0  0  0
 14 15  1  0  0  0
 15 16  1  0  0  0
 16 17  1  0  0  0
 17 18  1  0  0  0
 18 19  1  0  0  0
M  END
> <minimizedAffinity>
-6.89336

> <CNNscore>
0.6366274357

> <CNNaffinity>
6.2257523537

> <CNN_VS>
3.9634847641

> <CNNaffinity_variance>
0.4268522263

$$$$
/media/chris/experiments/cd1a-new-docking/inputs/ligands/4x6d_2_ligand.pdb


 19 18  0  0  0  0  0  0  0  0999 V2000
  -38.6834   58.5818   62.9173 C   0  0  0  0  0  0  0  0  0  0  0  0
  -37.6993   57.4916   62.5165 C   0  0  0  0  0  0  0  0  0  0  0  0
  -37.1825   57.6669   61.0986 C   0  0  0  0  0  0  0  0  0  0  0  0
  -35.8932   56.8843   60.9100 C   0  0  0  0  0  0  0  0  0  0  0  0
  -35.7539   56.5085   59.4458 C   0  0  0  0  0  0  0  0  0  0  0  0
  -34.5990   55.5461   59.2184 C   0  0  0  0  0  0  0  0  0  0  0  0
  -33.2966   56.2902   59.3780 C   0  0  0  0  0  0  0  0  0  0  0  0
  -32.4220   55.8587   60.1544 O   0  0  0  0  0  0  0  0  0  0  0  0
  -33.0718   57.3445   58.7464 O   0  0  0  0  0  0  0  0  0  0  0  0
  -33.7168   57.6847   58.1581 H   0  0  0  0  0  0  0  0  0  0  0  0
  -39.0380   58.3524   64.3792 C   0  0  0  0  0  0  0  0  0  0  0  0
  -38.9769   59.6328   65.1771 C   0  0  0  0  0  0  0  0  0  0  0  0
  -40.1400   60.0488   65.9768 C   0  0  0  0  0  0  0  0  0  0  0  0
  -41.4429   59.3074   65.8120 C   0  0  0  0  0  0  0  0  0  0  0  0
  -42.5173   59.8951   66.7205 C   0  0  0  0  0  0  0  0  0  0  0  0
  -43.9043   59.6552   66.1248 C   0  0  0  0  0  0  0  0  0  0  0  0
  -43.8263   58.9195   64.7879 C   0  0  0  0  0  0  0  0  0  0  0  0
  -45.0564   58.0405   64.5477 C   0  0  0  0  0  0  0  0  0  0  0  0
  -45.5699   57.3759   65.8223 C   0  0  0  0  0  0  0  0  0  0  0  0
  7  8  2  0  0  0
  7  6  1  0  0  0
  7  9  1  0  0  0
  6  5  1  0  0  0
  9 10  1  0  0  0
  5  4  1  0  0  0
  4  3  1  0  0  0
  3  2  1  0  0  0
  2  1  1  0  0  0
  1 11  1  0  0  0
 11 12  1  0  0  0
 12 13  2  0  0  0
 13 14  1  0  0  0
 14 15  1  0  0  0
 15 16  1  0  0  0
 16 17  1  0  0  0
 17 18  1  0  0  0
 18 19  1  0  0  0
M  END
> <minimizedAffinity>
-6.18293

> <CNNscore>
0.6179710627

> <CNNaffinity>
5.3648309708

> <CNN_VS>
3.3153102398

> <CNNaffinity_variance>
0.0319524556

$$$$
