/media/chris/experiments/cd1a-new-docking/inputs/ligands/4x6d_2_ligand.pdb


 19 18  0  0  0  0  0  0  0  0999 V2000
  -46.6096   57.6212   65.4648 C   0  0  0  0  0  0  0  0  0  0  0  0
  -45.3188   58.1180   64.8285 C   0  0  0  0  0  0  0  0  0  0  0  0
  -44.1143   57.9334   65.7359 C   0  0  0  0  0  0  0  0  0  0  0  0
  -43.6128   59.2831   66.2226 C   0  0  0  0  0  0  0  0  0  0  0  0
  -42.2585   59.5614   65.5956 C   0  0  0  0  0  0  0  0  0  0  0  0
  -41.7949   60.9844   65.8642 C   0  0  0  0  0  0  0  0  0  0  0  0
  -40.2923   61.0451   65.7479 C   0  0  0  0  0  0  0  0  0  0  0  0
  -39.6387   60.0029   65.5472 O   0  0  0  0  0  0  0  0  0  0  0  0
  -39.6782   62.1280   65.8536 O   0  0  0  0  0  0  0  0  0  0  0  0
  -40.1517   62.9224   66.0046 H   0  0  0  0  0  0  0  0  0  0  0  0
  -47.5706   58.8002   65.5122 C   0  0  0  0  0  0  0  0  0  0  0  0
  -49.0111   58.3478   65.5154 C   0  0  0  0  0  0  0  0  0  0  0  0
  -49.8523   58.5874   64.3321 C   0  0  0  0  0  0  0  0  0  0  0  0
  -49.3267   59.4712   63.2288 C   0  0  0  0  0  0  0  0  0  0  0  0
  -50.3052   59.5154   62.0602 C   0  0  0  0  0  0  0  0  0  0  0  0
  -50.3391   58.1644   61.3460 C   0  0  0  0  0  0  0  0  0  0  0  0
  -49.7705   58.2582   59.9310 C   0  0  0  0  0  0  0  0  0  0  0  0
  -48.3462   57.7029   59.8504 C   0  0  0  0  0  0  0  0  0  0  0  0
  -48.2837   56.3168   59.2141 C   0  0  0  0  0  0  0  0  0  0  0  0
  7  8  2  0  0  0
  7  6  1  0  0  0
  7  9  1  0  0  0
  6  5  1  0  0  0
  9 10  1  0  0  0
  5  4  1  0  0  0
  4  3  1  0  0  0
  3  2  1  0  0  0
  2  1  1  0  0  0
  1 11  1  0  0  0
 11 12  1  0  0  0
 12 13  2  0  0  0
 13 14  1  0  0  0
 14 15  1  0  0  0
 15 16  1  0  0  0
 16 17  1  0  0  0
 17 18  1  0  0  0
 18 19  1  0  0  0
M  END
> <minimizedAffinity>
-6.33295

> <CNNscore>
0.8532922864

> <CNNaffinity>
6.5426225662

> <CNN_VS>
5.5827693939

> <CNNaffinity_variance>
0.8712913394

$$$$
/media/chris/experiments/cd1a-new-docking/inputs/ligands/4x6d_2_ligand.pdb


 19 18  0  0  0  0  0  0  0  0999 V2000
  -41.4002   59.2489   66.2236 C   0  0  0  0  0  0  0  0  0  0  0  0
  -40.9324   58.8173   64.8407 C   0  0  0  0  0  0  0  0  0  0  0  0
  -39.4408   58.5328   64.7936 C   0  0  0  0  0  0  0  0  0  0  0  0
  -38.8882   58.8579   63.4155 C   0  0  0  0  0  0  0  0  0  0  0  0
  -39.2790   60.2786   63.0500 C   0  0  0  0  0  0  0  0  0  0  0  0
  -38.3468   60.8678   62.0032 C   0  0  0  0  0  0  0  0  0  0  0  0
  -38.8314   60.4720   60.6307 C   0  0  0  0  0  0  0  0  0  0  0  0
  -39.8644   60.9872   60.1605 O   0  0  0  0  0  0  0  0  0  0  0  0
  -38.2172   59.6261   59.9464 O   0  0  0  0  0  0  0  0  0  0  0  0
  -37.4386   59.2276   60.2825 H   0  0  0  0  0  0  0  0  0  0  0  0
  -42.8797   58.9073   66.3250 C   0  0  0  0  0  0  0  0  0  0  0  0
  -43.2963   57.9078   65.2727 C   0  0  0  0  0  0  0  0  0  0  0  0
  -44.7125   57.8042   64.8869 C   0  0  0  0  0  0  0  0  0  0  0  0
  -45.7474   58.5389   65.7015 C   0  0  0  0  0  0  0  0  0  0  0  0
  -47.1326   58.3805   65.0841 C   0  0  0  0  0  0  0  0  0  0  0  0
  -48.1064   59.3831   65.7029 C   0  0  0  0  0  0  0  0  0  0  0  0
  -49.5483   58.8812   65.6441 C   0  0  0  0  0  0  0  0  0  0  0  0
  -50.4837   59.9072   64.9990 C   0  0  0  0  0  0  0  0  0  0  0  0
  -50.2885   60.0230   63.4896 C   0  0  0  0  0  0  0  0  0  0  0  0
  7  8  2  0  0  0
  7  6  1  0  0  0
  7  9  1  0  0  0
  6  5  1  0  0  0
  9 10  1  0  0  0
  5  4  1  0  0  0
  4  3  1  0  0  0
  3  2  1  0  0  0
  2  1  1  0  0  0
  1 11  1  0  0  0
 11 12  1  0  0  0
 12 13  2  0  0  0
 13 14  1  0  0  0
 14 15  1  0  0  0
 15 16  1  0  0  0
 16 17  1  0  0  0
 17 18  1  0  0  0
 18 19  1  0  0  0
M  END
> <minimizedAffinity>
-6.30440

> <CNNscore>
0.7611798644

> <CNNaffinity>
6.1450457573

> <CNN_VS>
4.6774849892

> <CNNaffinity_variance>
0.3479632437

$$$$
/media/chris/experiments/cd1a-new-docking/inputs/ligands/4x6d_2_ligand.pdb


 19 18  0  0  0  0  0  0  0  0999 V2000
  -48.0254   59.0435   64.7243 C   0  0  0  0  0  0  0  0  0  0  0  0
  -47.2008   57.9468   65.3838 C   0  0  0  0  0  0  0  0  0  0  0  0
  -45.7068   58.2067   65.2910 C   0  0  0  0  0  0  0  0  0  0  0  0
  -45.3121   59.3372   66.2270 C   0  0  0  0  0  0  0  0  0  0  0  0
  -44.4845   60.3498   65.4560 C   0  0  0  0  0  0  0  0  0  0  0  0
  -43.0258   59.9313   65.3626 C   0  0  0  0  0  0  0  0  0  0  0  0
  -42.3995   60.0120   66.7324 C   0  0  0  0  0  0  0  0  0  0  0  0
  -41.7226   59.0597   67.1667 O   0  0  0  0  0  0  0  0  0  0  0  0
  -42.5480   61.0213   67.4536 O   0  0  0  0  0  0  0  0  0  0  0  0
  -43.0533   61.7475   67.1448 H   0  0  0  0  0  0  0  0  0  0  0  0
  -48.9462   58.3699   63.7172 C   0  0  0  0  0  0  0  0  0  0  0  0
  -49.8729   59.3618   63.0560 C   0  0  0  0  0  0  0  0  0  0  0  0
  -50.6657   58.9501   61.8866 C   0  0  0  0  0  0  0  0  0  0  0  0
  -50.3756   57.6194   61.2390 C   0  0  0  0  0  0  0  0  0  0  0  0
  -50.2346   57.7734   59.7286 C   0  0  0  0  0  0  0  0  0  0  0  0
  -49.0263   56.9837   59.2259 C   0  0  0  0  0  0  0  0  0  0  0  0
  -47.7154   57.7178   59.5035 C   0  0  0  0  0  0  0  0  0  0  0  0
  -47.1514   58.3756   58.2415 C   0  0  0  0  0  0  0  0  0  0  0  0
  -47.5077   57.6168   56.9658 C   0  0  0  0  0  0  0  0  0  0  0  0
  7  8  2  0  0  0
  7  6  1  0  0  0
  7  9  1  0  0  0
  6  5  1  0  0  0
  9 10  1  0  0  0
  5  4  1  0  0  0
  4  3  1  0  0  0
  3  2  1  0  0  0
  2  1  1  0  0  0
  1 11  1  0  0  0
 11 12  1  0  0  0
 12 13  2  0  0  0
 13 14  1  0  0  0
 14 15  1  0  0  0
 15 16  1  0  0  0
 16 17  1  0  0  0
 17 18  1  0  0  0
 18 19  1  0  0  0
M  END
> <minimizedAffinity>
-7.01803

> <CNNscore>
0.7391393185

> <CNNaffinity>
6.3382577896

> <CNN_VS>
4.6848554611

> <CNNaffinity_variance>
0.3701329529

$$$$
/media/chris/experiments/cd1a-new-docking/inputs/ligands/4x6d_2_ligand.pdb


 19 18  0  0  0  0  0  0  0  0999 V2000
  -49.6346   58.3735   64.3665 C   0  0  0  0  0  0  0  0  0  0  0  0
  -50.1419   58.8219   63.0029 C   0  0  0  0  0  0  0  0  0  0  0  0
  -49.7219   57.8800   61.8873 C   0  0  0  0  0  0  0  0  0  0  0  0
  -50.8615   57.6975   60.8983 C   0  0  0  0  0  0  0  0  0  0  0  0
  -50.3173   57.8345   59.4878 C   0  0  0  0  0  0  0  0  0  0  0  0
  -48.7994   57.9215   59.4754 C   0  0  0  0  0  0  0  0  0  0  0  0
  -48.2547   56.9196   58.4880 C   0  0  0  0  0  0  0  0  0  0  0  0
  -48.0583   55.7399   58.8393 O   0  0  0  0  0  0  0  0  0  0  0  0
  -47.9879   57.2486   57.3126 O   0  0  0  0  0  0  0  0  0  0  0  0
  -48.1287   58.1306   57.0296 H   0  0  0  0  0  0  0  0  0  0  0  0
  -48.1689   58.7731   64.4548 C   0  0  0  0  0  0  0  0  0  0  0  0
  -47.9157   59.7207   65.6026 C   0  0  0  0  0  0  0  0  0  0  0  0
  -46.5460   60.1836   65.8762 C   0  0  0  0  0  0  0  0  0  0  0  0
  -45.3961   59.5348   65.1474 C   0  0  0  0  0  0  0  0  0  0  0  0
  -44.1097   60.3266   65.3549 C   0  0  0  0  0  0  0  0  0  0  0  0
  -43.4304   59.9022   66.6568 C   0  0  0  0  0  0  0  0  0  0  0  0
  -42.3537   60.8985   67.0839 C   0  0  0  0  0  0  0  0  0  0  0  0
  -41.3894   61.2219   65.9397 C   0  0  0  0  0  0  0  0  0  0  0  0
  -40.2683   60.1954   65.7993 C   0  0  0  0  0  0  0  0  0  0  0  0
  7  8  2  0  0  0
  7  6  1  0  0  0
  7  9  1  0  0  0
  6  5  1  0  0  0
  9 10  1  0  0  0
  5  4  1  0  0  0
  4  3  1  0  0  0
  3  2  1  0  0  0
  2  1  1  0  0  0
  1 11  1  0  0  0
 11 12  1  0  0  0
 12 13  2  0  0  0
 13 14  1  0  0  0
 14 15  1  0  0  0
 15 16  1  0  0  0
 16 17  1  0  0  0
 17 18  1  0  0  0
 18 19  1  0  0  0
M  END
> <minimizedAffinity>
-6.64487

> <CNNscore>
0.7113081217

> <CNNaffinity>
6.2042169571

> <CNN_VS>
4.4131097794

> <CNNaffinity_variance>
0.5722638369

$$$$
/media/chris/experiments/cd1a-new-docking/inputs/ligands/4x6d_2_ligand.pdb


 19 18  0  0  0  0  0  0  0  0999 V2000
  -50.8967   59.7450   62.9916 C   0  0  0  0  0  0  0  0  0  0  0  0
  -50.0595   58.9661   61.9865 C   0  0  0  0  0  0  0  0  0  0  0  0
  -50.8507   57.8668   61.2981 C   0  0  0  0  0  0  0  0  0  0  0  0
  -50.0227   57.2418   60.1873 C   0  0  0  0  0  0  0  0  0  0  0  0
  -49.1347   58.3093   59.5736 C   0  0  0  0  0  0  0  0  0  0  0  0
  -47.7648   57.7606   59.2075 C   0  0  0  0  0  0  0  0  0  0  0  0
  -47.9130   56.7771   58.0734 C   0  0  0  0  0  0  0  0  0  0  0  0
  -47.5699   55.5889   58.2283 O   0  0  0  0  0  0  0  0  0  0  0  0
  -48.3732   57.1299   56.9667 O   0  0  0  0  0  0  0  0  0  0  0  0
  -48.6367   58.0188   56.8307 H   0  0  0  0  0  0  0  0  0  0  0  0
  -50.0901   59.8296   64.2792 C   0  0  0  0  0  0  0  0  0  0  0  0
  -49.8764   58.4680   64.8958 C   0  0  0  0  0  0  0  0  0  0  0  0
  -48.5079   57.9887   65.1464 C   0  0  0  0  0  0  0  0  0  0  0  0
  -47.3461   58.7686   64.5839 C   0  0  0  0  0  0  0  0  0  0  0  0
  -46.1080   58.5982   65.4575 C   0  0  0  0  0  0  0  0  0  0  0  0
  -44.9608   58.0039   64.6407 C   0  0  0  0  0  0  0  0  0  0  0  0
  -43.6484   58.7473   64.8847 C   0  0  0  0  0  0  0  0  0  0  0  0
  -43.8751   60.0916   65.5810 C   0  0  0  0  0  0  0  0  0  0  0  0
  -43.0370   60.2544   66.8463 C   0  0  0  0  0  0  0  0  0  0  0  0
  7  8  2  0  0  0
  7  6  1  0  0  0
  7  9  1  0  0  0
  6  5  1  0  0  0
  9 10  1  0  0  0
  5  4  1  0  0  0
  4  3  1  0  0  0
  3  2  1  0  0  0
  2  1  1  0  0  0
  1 11  1  0  0  0
 11 12  1  0  0  0
 12 13  2  0  0  0
 13 14  1  0  0  0
 14 15  1  0  0  0
 15 16  1  0  0  0
 16 17  1  0  0  0
 17 18  1  0  0  0
 18 19  1  0  0  0
M  END
> <minimizedAffinity>
-7.00199

> <CNNscore>
0.7016174793

> <CNNaffinity>
6.5001230240

> <CNN_VS>
4.5605998039

> <CNNaffinity_variance>
0.4513242245

$$$$
/media/chris/experiments/cd1a-new-docking/inputs/ligands/4x6d_2_ligand.pdb


 19 18  0  0  0  0  0  0  0  0999 V2000
  -44.6318   59.2406   65.2611 C   0  0  0  0  0  0  0  0  0  0  0  0
  -44.2270   59.8285   66.6058 C   0  0  0  0  0  0  0  0  0  0  0  0
  -42.7266   60.0372   66.7216 C   0  0  0  0  0  0  0  0  0  0  0  0
  -41.9878   59.0087   65.8811 C   0  0  0  0  0  0  0  0  0  0  0  0
  -41.0602   59.7310   64.9207 C   0  0  0  0  0  0  0  0  0  0  0  0
  -39.6172   59.6982   65.3989 C   0  0  0  0  0  0  0  0  0  0  0  0
  -39.1843   61.0971   65.7609 C   0  0  0  0  0  0  0  0  0  0  0  0
  -37.9886   61.3328   66.0222 O   0  0  0  0  0  0  0  0  0  0  0  0
  -40.0064   62.0366   65.8102 O   0  0  0  0  0  0  0  0  0  0  0  0
  -40.9097   61.8794   65.6172 H   0  0  0  0  0  0  0  0  0  0  0  0
  -46.1457   59.0873   65.2745 C   0  0  0  0  0  0  0  0  0  0  0  0
  -46.7683   59.7880   66.4582 C   0  0  0  0  0  0  0  0  0  0  0  0
  -47.8286   60.7846   66.2394 C   0  0  0  0  0  0  0  0  0  0  0  0
  -48.1189   61.2461   64.8333 C   0  0  0  0  0  0  0  0  0  0  0  0
  -49.6001   61.0875   64.5080 C   0  0  0  0  0  0  0  0  0  0  0  0
  -50.1125   59.7393   65.0142 C   0  0  0  0  0  0  0  0  0  0  0  0
  -49.9725   58.6472   63.9550 C   0  0  0  0  0  0  0  0  0  0  0  0
  -50.4251   59.1298   62.5745 C   0  0  0  0  0  0  0  0  0  0  0  0
  -50.5585   57.9951   61.5624 C   0  0  0  0  0  0  0  0  0  0  0  0
  7  8  2  0  0  0
  7  6  1  0  0  0
  7  9  1  0  0  0
  6  5  1  0  0  0
  9 10  1  0  0  0
  5  4  1  0  0  0
  4  3  1  0  0  0
  3  2  1  0  0  0
  2  1  1  0  0  0
  1 11  1  0  0  0
 11 12  1  0  0  0
 12 13  2  0  0  0
 13 14  1  0  0  0
 14 15  1  0  0  0
 15 16  1  0  0  0
 16 17  1  0  0  0
 17 18  1  0  0  0
 18 19  1  0  0  0
M  END
> <minimizedAffinity>
-6.48427

> <CNNscore>
0.6976459026

> <CNNaffinity>
6.0618596077

> <CNN_VS>
4.2290315628

> <CNNaffinity_variance>
0.2385549992

$$$$
/media/chris/experiments/cd1a-new-docking/inputs/ligands/4x6d_2_ligand.pdb


 19 18  0  0  0  0  0  0  0  0999 V2000
  -42.6289   60.5612   65.3312 C   0  0  0  0  0  0  0  0  0  0  0  0
  -42.0831   60.6530   63.9129 C   0  0  0  0  0  0  0  0  0  0  0  0
  -40.5962   60.3493   63.8410 C   0  0  0  0  0  0  0  0  0  0  0  0
  -40.0362   60.1371   65.2380 C   0  0  0  0  0  0  0  0  0  0  0  0
  -38.7299   59.3706   65.1346 C   0  0  0  0  0  0  0  0  0  0  0  0
  -37.5756   60.2757   64.7346 C   0  0  0  0  0  0  0  0  0  0  0  0
  -37.4217   61.3658   65.7657 C   0  0  0  0  0  0  0  0  0  0  0  0
  -37.1257   61.0762   66.9414 O   0  0  0  0  0  0  0  0  0  0  0  0
  -37.5902   62.5673   65.4674 O   0  0  0  0  0  0  0  0  0  0  0  0
  -37.8132   62.8051   64.5890 H   0  0  0  0  0  0  0  0  0  0  0  0
  -44.0955   60.1696   65.2243 C   0  0  0  0  0  0  0  0  0  0  0  0
  -44.6614   59.7508   66.5600 C   0  0  0  0  0  0  0  0  0  0  0  0
  -46.1096   59.5319   66.7010 C   0  0  0  0  0  0  0  0  0  0  0  0
  -47.0236   59.9408   65.5732 C   0  0  0  0  0  0  0  0  0  0  0  0
  -48.0070   61.0102   66.0361 C   0  0  0  0  0  0  0  0  0  0  0  0
  -48.9655   61.3750   64.9026 C   0  0  0  0  0  0  0  0  0  0  0  0
  -50.3159   60.6771   65.0571 C   0  0  0  0  0  0  0  0  0  0  0  0
  -50.4275   59.4446   64.1560 C   0  0  0  0  0  0  0  0  0  0  0  0
  -50.9447   59.7749   62.7584 C   0  0  0  0  0  0  0  0  0  0  0  0
  7  8  2  0  0  0
  7  6  1  0  0  0
  7  9  1  0  0  0
  6  5  1  0  0  0
  9 10  1  0  0  0
  5  4  1  0  0  0
  4  3  1  0  0  0
  3  2  1  0  0  0
  2  1  1  0  0  0
  1 11  1  0  0  0
 11 12  1  0  0  0
 12 13  2  0  0  0
 13 14  1  0  0  0
 14 15  1  0  0  0
 15 16  1  0  0  0
 16 17  1  0  0  0
 17 18  1  0  0  0
 18 19  1  0  0  0
M  END
> <minimizedAffinity>
-6.15539

> <CNNscore>
0.6692562699

> <CNNaffinity>
5.9537415504

> <CNN_VS>
3.9845788479

> <CNNaffinity_variance>
0.4577022195

$$$$
/media/chris/experiments/cd1a-new-docking/inputs/ligands/4x6d_2_ligand.pdb


 19 18  0  0  0  0  0  0  0  0999 V2000
  -48.1813   57.5548   65.4217 C   0  0  0  0  0  0  0  0  0  0  0  0
  -49.1388   58.4907   64.6970 C   0  0  0  0  0  0  0  0  0  0  0  0
  -49.1067   58.3027   63.1898 C   0  0  0  0  0  0  0  0  0  0  0  0
  -50.3885   58.8321   62.5680 C   0  0  0  0  0  0  0  0  0  0  0  0
  -50.7709   57.9462   61.3960 C   0  0  0  0  0  0  0  0  0  0  0  0
  -50.1154   58.4069   60.1038 C   0  0  0  0  0  0  0  0  0  0  0  0
  -49.4949   57.2183   59.4130 C   0  0  0  0  0  0  0  0  0  0  0  0
  -49.4795   56.1064   59.9762 O   0  0  0  0  0  0  0  0  0  0  0  0
  -48.9854   57.3231   58.2770 O   0  0  0  0  0  0  0  0  0  0  0  0
  -48.9871   58.1506   57.8373 H   0  0  0  0  0  0  0  0  0  0  0  0
  -46.9385   58.3622   65.7673 C   0  0  0  0  0  0  0  0  0  0  0  0
  -45.8739   57.5037   66.4072 C   0  0  0  0  0  0  0  0  0  0  0  0
  -44.4831   57.5962   65.9356 C   0  0  0  0  0  0  0  0  0  0  0  0
  -44.1874   58.3800   64.6816 C   0  0  0  0  0  0  0  0  0  0  0  0
  -43.0316   59.3480   64.9100 C   0  0  0  0  0  0  0  0  0  0  0  0
  -43.4291   60.7593   64.4778 C   0  0  0  0  0  0  0  0  0  0  0  0
  -42.2181   61.5755   64.0288 C   0  0  0  0  0  0  0  0  0  0  0  0
  -41.2300   60.7319   63.2191 C   0  0  0  0  0  0  0  0  0  0  0  0
  -41.0048   61.2708   61.8088 C   0  0  0  0  0  0  0  0  0  0  0  0
  7  8  2  0  0  0
  7  6  1  0  0  0
  7  9  1  0  0  0
  6  5  1  0  0  0
  9 10  1  0  0  0
  5  4  1  0  0  0
  4  3  1  0  0  0
  3  2  1  0  0  0
  2  1  1  0  0  0
  1 11  1  0  0  0
 11 12  1  0  0  0
 12 13  2  0  0  0
 13 14  1  0  0  0
 14 15  1  0  0  0
 15 16  1  0  0  0
 16 17  1  0  0  0
 17 18  1  0  0  0
 18 19  1  0  0  0
M  END
> <minimizedAffinity>
-6.44364

> <CNNscore>
0.6467398405

> <CNNaffinity>
6.2312316895

> <CNN_VS>
4.0299859047

> <CNNaffinity_variance>
0.7051094174

$$$$
/media/chris/experiments/cd1a-new-docking/inputs/ligands/4x6d_2_ligand.pdb


 19 18  0  0  0  0  0  0  0  0999 V2000
  -45.0837   57.2957   65.4900 C   0  0  0  0  0  0  0  0  0  0  0  0
  -44.5202   58.2739   64.4687 C   0  0  0  0  0  0  0  0  0  0  0  0
  -43.1386   58.7795   64.8480 C   0  0  0  0  0  0  0  0  0  0  0  0
  -42.8270   58.4204   66.2916 C   0  0  0  0  0  0  0  0  0  0  0  0
  -41.8447   59.4337   66.8509 C   0  0  0  0  0  0  0  0  0  0  0  0
  -42.2330   60.8571   66.4836 C   0  0  0  0  0  0  0  0  0  0  0  0
  -41.0424   61.5521   65.8714 C   0  0  0  0  0  0  0  0  0  0  0  0
  -40.2498   60.9149   65.1507 O   0  0  0  0  0  0  0  0  0  0  0  0
  -40.8260   62.7656   66.0751 O   0  0  0  0  0  0  0  0  0  0  0  0
  -41.4103   63.2617   66.6140 H   0  0  0  0  0  0  0  0  0  0  0  0
  -46.5050   57.7408   65.8027 C   0  0  0  0  0  0  0  0  0  0  0  0
  -46.5337   58.8189   66.8594 C   0  0  0  0  0  0  0  0  0  0  0  0
  -47.0824   60.1445   66.5326 C   0  0  0  0  0  0  0  0  0  0  0  0
  -47.4016   60.4690   65.0948 C   0  0  0  0  0  0  0  0  0  0  0  0
  -48.7818   61.1066   64.9789 C   0  0  0  0  0  0  0  0  0  0  0  0
  -49.8707   60.0450   65.1330 C   0  0  0  0  0  0  0  0  0  0  0  0
  -50.9733   60.2098   64.0882 C   0  0  0  0  0  0  0  0  0  0  0  0
  -50.4749   59.8878   62.6770 C   0  0  0  0  0  0  0  0  0  0  0  0
  -50.2031   58.4005   62.4676 C   0  0  0  0  0  0  0  0  0  0  0  0
  7  8  2  0  0  0
  7  6  1  0  0  0
  7  9  1  0  0  0
  6  5  1  0  0  0
  9 10  1  0  0  0
  5  4  1  0  0  0
  4  3  1  0  0  0
  3  2  1  0  0  0
  2  1  1  0  0  0
  1 11  1  0  0  0
 11 12  1  0  0  0
 12 13  2  0  0  0
 13 14  1  0  0  0
 14 15  1  0  0  0
 15 16  1  0  0  0
 16 17  1  0  0  0
 17 18  1  0  0  0
 18 19  1  0  0  0
M  END
> <minimizedAffinity>
-6.55796

> <CNNscore>
0.5924172401

> <CNNaffinity>
6.0354232788

> <CNN_VS>
3.5754888058

> <CNNaffinity_variance>
0.1395882219

$$$$
