/media/chris/experiments/cd1a-new-docking/inputs/ligands/4x6d_2_ligand.pdb


 19 18  0  0  0  0  0  0  0  0999 V2000
  -45.9288   57.6895   65.9056 C   0  0  0  0  0  0  0  0  0  0  0  0
  -44.7611   57.7335   64.9296 C   0  0  0  0  0  0  0  0  0  0  0  0
  -43.7413   58.8003   65.2901 C   0  0  0  0  0  0  0  0  0  0  0  0
  -42.6281   58.1984   66.1317 C   0  0  0  0  0  0  0  0  0  0  0  0
  -41.6569   59.2973   66.5237 C   0  0  0  0  0  0  0  0  0  0  0  0
  -42.2752   60.6776   66.3685 C   0  0  0  0  0  0  0  0  0  0  0  0
  -41.3762   61.5280   65.5059 C   0  0  0  0  0  0  0  0  0  0  0  0
  -41.5675   61.5903   64.2758 O   0  0  0  0  0  0  0  0  0  0  0  0
  -40.4292   62.1762   65.9999 O   0  0  0  0  0  0  0  0  0  0  0  0
  -40.2692   62.1422   66.9226 H   0  0  0  0  0  0  0  0  0  0  0  0
  -47.0917   58.4189   65.2488 C   0  0  0  0  0  0  0  0  0  0  0  0
  -47.3091   59.7847   65.8547 C   0  0  0  0  0  0  0  0  0  0  0  0
  -48.6779   60.2508   66.1275 C   0  0  0  0  0  0  0  0  0  0  0  0
  -49.8414   59.4513   65.5970 C   0  0  0  0  0  0  0  0  0  0  0  0
  -50.7299   60.3153   64.7086 C   0  0  0  0  0  0  0  0  0  0  0  0
  -50.6369   59.8516   63.2552 C   0  0  0  0  0  0  0  0  0  0  0  0
  -50.0177   58.4591   63.1441 C   0  0  0  0  0  0  0  0  0  0  0  0
  -49.7389   58.0731   61.6892 C   0  0  0  0  0  0  0  0  0  0  0  0
  -50.9833   57.5778   60.9569 C   0  0  0  0  0  0  0  0  0  0  0  0
  7  8  2  0  0  0
  7  6  1  0  0  0
  7  9  1  0  0  0
  6  5  1  0  0  0
  9 10  1  0  0  0
  5  4  1  0  0  0
  4  3  1  0  0  0
  3  2  1  0  0  0
  2  1  1  0  0  0
  1 11  1  0  0  0
 11 12  1  0  0  0
 12 13  2  0  0  0
 13 14  1  0  0  0
 14 15  1  0  0  0
 15 16  1  0  0  0
 16 17  1  0  0  0
 17 18  1  0  0  0
 18 19  1  0  0  0
M  END
> <minimizedAffinity>
-6.79726

> <CNNscore>
0.8756152987

> <CNNaffinity>
6.4039139748

> <CNN_VS>
5.6073651314

> <CNNaffinity_variance>
0.4356667101

$$$$
/media/chris/experiments/cd1a-new-docking/inputs/ligands/4x6d_2_ligand.pdb


 19 18  0  0  0  0  0  0  0  0999 V2000
  -45.8058   60.3523   65.3398 C   0  0  0  0  0  0  0  0  0  0  0  0
  -45.0564   59.0650   65.0249 C   0  0  0  0  0  0  0  0  0  0  0  0
  -43.8502   58.8587   65.9253 C   0  0  0  0  0  0  0  0  0  0  0  0
  -43.6130   60.0960   66.7754 C   0  0  0  0  0  0  0  0  0  0  0  0
  -42.1180   60.3021   66.9399 C   0  0  0  0  0  0  0  0  0  0  0  0
  -41.6287   61.5183   66.1698 C   0  0  0  0  0  0  0  0  0  0  0  0
  -40.2608   61.2281   65.6042 C   0  0  0  0  0  0  0  0  0  0  0  0
  -40.0753   60.2099   64.9095 O   0  0  0  0  0  0  0  0  0  0  0  0
  -39.2953   61.9907   65.8216 O   0  0  0  0  0  0  0  0  0  0  0  0
  -39.4146   62.7611   66.3415 H   0  0  0  0  0  0  0  0  0  0  0  0
  -47.2737   59.9884   65.5090 C   0  0  0  0  0  0  0  0  0  0  0  0
  -47.5807   58.6236   64.9406 C   0  0  0  0  0  0  0  0  0  0  0  0
  -48.6228   58.4809   63.9116 C   0  0  0  0  0  0  0  0  0  0  0  0
  -49.5123   59.6593   63.6041 C   0  0  0  0  0  0  0  0  0  0  0  0
  -50.4104   59.3605   62.4086 C   0  0  0  0  0  0  0  0  0  0  0  0
  -50.1123   57.9664   61.8573 C   0  0  0  0  0  0  0  0  0  0  0  0
  -50.9955   57.6323   60.6560 C   0  0  0  0  0  0  0  0  0  0  0  0
  -50.3099   57.9752   59.3310 C   0  0  0  0  0  0  0  0  0  0  0  0
  -48.7915   58.0700   59.4547 C   0  0  0  0  0  0  0  0  0  0  0  0
  7  8  2  0  0  0
  7  6  1  0  0  0
  7  9  1  0  0  0
  6  5  1  0  0  0
  9 10  1  0  0  0
  5  4  1  0  0  0
  4  3  1  0  0  0
  3  2  1  0  0  0
  2  1  1  0  0  0
  1 11  1  0  0  0
 11 12  1  0  0  0
 12 13  2  0  0  0
 13 14  1  0  0  0
 14 15  1  0  0  0
 15 16  1  0  0  0
 16 17  1  0  0  0
 17 18  1  0  0  0
 18 19  1  0  0  0
M  END
> <minimizedAffinity>
-6.76578

> <CNNscore>
0.7482486963

> <CNNaffinity>
6.1928710938

> <CNN_VS>
4.6338076591

> <CNNaffinity_variance>
0.4702995718

$$$$
/media/chris/experiments/cd1a-new-docking/inputs/ligands/4x6d_2_ligand.pdb


 19 18  0  0  0  0  0  0  0  0999 V2000
  -47.9508   58.3326   65.7709 C   0  0  0  0  0  0  0  0  0  0  0  0
  -46.8723   57.2892   66.0283 C   0  0  0  0  0  0  0  0  0  0  0  0
  -45.5084   57.9109   66.2758 C   0  0  0  0  0  0  0  0  0  0  0  0
  -45.6634   59.3591   66.7100 C   0  0  0  0  0  0  0  0  0  0  0  0
  -44.7474   60.2276   65.8667 C   0  0  0  0  0  0  0  0  0  0  0  0
  -43.3897   59.5764   65.6563 C   0  0  0  0  0  0  0  0  0  0  0  0
  -42.4946   59.9108   66.8236 C   0  0  0  0  0  0  0  0  0  0  0  0
  -41.6548   59.0815   67.2243 O   0  0  0  0  0  0  0  0  0  0  0  0
  -42.5787   61.0112   67.4093 O   0  0  0  0  0  0  0  0  0  0  0  0
  -43.2038   61.6478   67.1229 H   0  0  0  0  0  0  0  0  0  0  0  0
  -48.5308   58.0495   64.3928 C   0  0  0  0  0  0  0  0  0  0  0  0
  -49.6477   59.0055   64.0489 C   0  0  0  0  0  0  0  0  0  0  0  0
  -50.3921   58.8336   62.7912 C   0  0  0  0  0  0  0  0  0  0  0  0
  -49.8847   57.8456   61.7710 C   0  0  0  0  0  0  0  0  0  0  0  0
  -50.8874   57.6803   60.6343 C   0  0  0  0  0  0  0  0  0  0  0  0
  -50.2006   57.8975   59.2861 C   0  0  0  0  0  0  0  0  0  0  0  0
  -48.7294   58.2739   59.4548 C   0  0  0  0  0  0  0  0  0  0  0  0
  -47.8508   57.6404   58.3730 C   0  0  0  0  0  0  0  0  0  0  0  0
  -47.6907   56.1322   58.5454 C   0  0  0  0  0  0  0  0  0  0  0  0
  7  8  2  0  0  0
  7  6  1  0  0  0
  7  9  1  0  0  0
  6  5  1  0  0  0
  9 10  1  0  0  0
  5  4  1  0  0  0
  4  3  1  0  0  0
  3  2  1  0  0  0
  2  1  1  0  0  0
  1 11  1  0  0  0
 11 12  1  0  0  0
 12 13  2  0  0  0
 13 14  1  0  0  0
 14 15  1  0  0  0
 15 16  1  0  0  0
 16 17  1  0  0  0
 17 18  1  0  0  0
 18 19  1  0  0  0
M  END
> <minimizedAffinity>
-6.92673

> <CNNscore>
0.7418960929

> <CNNaffinity>
6.4006528854

> <CNN_VS>
4.7486195564

> <CNNaffinity_variance>
0.4530583322

$$$$
/media/chris/experiments/cd1a-new-docking/inputs/ligands/4x6d_2_ligand.pdb


 19 18  0  0  0  0  0  0  0  0999 V2000
  -41.2914   58.4288   65.2813 C   0  0  0  0  0  0  0  0  0  0  0  0
  -40.8259   59.7336   64.6499 C   0  0  0  0  0  0  0  0  0  0  0  0
  -39.6134   59.5463   63.7538 C   0  0  0  0  0  0  0  0  0  0  0  0
  -39.0518   58.1437   63.9179 C   0  0  0  0  0  0  0  0  0  0  0  0
  -38.1698   57.8228   62.7248 C   0  0  0  0  0  0  0  0  0  0  0  0
  -36.7029   57.7371   63.1152 C   0  0  0  0  0  0  0  0  0  0  0  0
  -35.9368   58.8224   62.4006 C   0  0  0  0  0  0  0  0  0  0  0  0
  -36.3085   60.0091   62.4859 O   0  0  0  0  0  0  0  0  0  0  0  0
  -34.9283   58.5570   61.7124 O   0  0  0  0  0  0  0  0  0  0  0  0
  -34.6332   57.6710   61.6360 H   0  0  0  0  0  0  0  0  0  0  0  0
  -42.0958   58.7910   66.5213 C   0  0  0  0  0  0  0  0  0  0  0  0
  -43.2300   59.7332   66.1966 C   0  0  0  0  0  0  0  0  0  0  0  0
  -44.5979   59.2075   66.0628 C   0  0  0  0  0  0  0  0  0  0  0  0
  -44.8073   57.7143   66.0348 C   0  0  0  0  0  0  0  0  0  0  0  0
  -46.2944   57.3778   66.0218 C   0  0  0  0  0  0  0  0  0  0  0  0
  -47.0457   58.3326   65.0943 C   0  0  0  0  0  0  0  0  0  0  0  0
  -48.3350   58.8453   65.7342 C   0  0  0  0  0  0  0  0  0  0  0  0
  -48.1742   60.2654   66.2826 C   0  0  0  0  0  0  0  0  0  0  0  0
  -48.3897   61.3405   65.2206 C   0  0  0  0  0  0  0  0  0  0  0  0
  7  8  2  0  0  0
  7  6  1  0  0  0
  7  9  1  0  0  0
  6  5  1  0  0  0
  9 10  1  0  0  0
  5  4  1  0  0  0
  4  3  1  0  0  0
  3  2  1  0  0  0
  2  1  1  0  0  0
  1 11  1  0  0  0
 11 12  1  0  0  0
 12 13  2  0  0  0
 13 14  1  0  0  0
 14 15  1  0  0  0
 15 16  1  0  0  0
 16 17  1  0  0  0
 17 18  1  0  0  0
 18 19  1  0  0  0
M  END
> <minimizedAffinity>
-6.01421

> <CNNscore>
0.7144688368

> <CNNaffinity>
5.9960732460

> <CNN_VS>
4.2840075493

> <CNNaffinity_variance>
0.2807531357

$$$$
/media/chris/experiments/cd1a-new-docking/inputs/ligands/4x6d_2_ligand.pdb


 19 18  0  0  0  0  0  0  0  0999 V2000
  -48.2677   60.9131   65.7344 C   0  0  0  0  0  0  0  0  0  0  0  0
  -48.2483   59.4492   66.1521 C   0  0  0  0  0  0  0  0  0  0  0  0
  -47.5070   58.5704   65.1589 C   0  0  0  0  0  0  0  0  0  0  0  0
  -46.9980   57.3149   65.8477 C   0  0  0  0  0  0  0  0  0  0  0  0
  -45.5382   57.5112   66.2149 C   0  0  0  0  0  0  0  0  0  0  0  0
  -44.6480   57.5535   64.9831 C   0  0  0  0  0  0  0  0  0  0  0  0
  -43.3669   58.2737   65.3232 C   0  0  0  0  0  0  0  0  0  0  0  0
  -42.6643   57.8823   66.2754 O   0  0  0  0  0  0  0  0  0  0  0  0
  -42.9903   59.2688   64.6682 O   0  0  0  0  0  0  0  0  0  0  0  0
  -43.5049   59.5783   63.9488 H   0  0  0  0  0  0  0  0  0  0  0  0
  -49.0008   60.9913   64.4031 C   0  0  0  0  0  0  0  0  0  0  0  0
  -50.4507   60.5925   64.5387 C   0  0  0  0  0  0  0  0  0  0  0  0
  -51.1092   59.8582   63.4467 C   0  0  0  0  0  0  0  0  0  0  0  0
  -50.3918   59.7110   62.1284 C   0  0  0  0  0  0  0  0  0  0  0  0
  -49.8926   58.2823   61.9419 C   0  0  0  0  0  0  0  0  0  0  0  0
  -50.5551   57.6446   60.7210 C   0  0  0  0  0  0  0  0  0  0  0  0
  -49.5307   56.9732   59.8076 C   0  0  0  0  0  0  0  0  0  0  0  0
  -48.1693   57.6706   59.8673 C   0  0  0  0  0  0  0  0  0  0  0  0
  -47.7331   58.2389   58.5194 C   0  0  0  0  0  0  0  0  0  0  0  0
  7  8  2  0  0  0
  7  6  1  0  0  0
  7  9  1  0  0  0
  6  5  1  0  0  0
  9 10  1  0  0  0
  5  4  1  0  0  0
  4  3  1  0  0  0
  3  2  1  0  0  0
  2  1  1  0  0  0
  1 11  1  0  0  0
 11 12  1  0  0  0
 12 13  2  0  0  0
 13 14  1  0  0  0
 14 15  1  0  0  0
 15 16  1  0  0  0
 16 17  1  0  0  0
 17 18  1  0  0  0
 18 19  1  0  0  0
M  END
> <minimizedAffinity>
-6.81894

> <CNNscore>
0.6288906336

> <CNNaffinity>
6.2901868820

> <CNN_VS>
3.9558396339

> <CNNaffinity_variance>
0.3474045992

$$$$
/media/chris/experiments/cd1a-new-docking/inputs/ligands/4x6d_2_ligand.pdb


 19 18  0  0  0  0  0  0  0  0999 V2000
  -44.1912   60.1631   65.1980 C   0  0  0  0  0  0  0  0  0  0  0  0
  -43.4060   60.2803   66.4971 C   0  0  0  0  0  0  0  0  0  0  0  0
  -41.9111   60.4167   66.2632 C   0  0  0  0  0  0  0  0  0  0  0  0
  -41.3108   59.0665   65.9076 C   0  0  0  0  0  0  0  0  0  0  0  0
  -39.9343   59.2820   65.3048 C   0  0  0  0  0  0  0  0  0  0  0  0
  -39.5348   58.1365   64.3883 C   0  0  0  0  0  0  0  0  0  0  0  0
  -38.5731   58.6497   63.3457 C   0  0  0  0  0  0  0  0  0  0  0  0
  -38.9825   59.3854   62.4265 O   0  0  0  0  0  0  0  0  0  0  0  0
  -37.3611   58.3478   63.3785 O   0  0  0  0  0  0  0  0  0  0  0  0
  -37.0342   57.7959   64.0615 H   0  0  0  0  0  0  0  0  0  0  0  0
  -45.6334   59.8515   65.5707 C   0  0  0  0  0  0  0  0  0  0  0  0
  -46.5831   60.9105   65.0645 C   0  0  0  0  0  0  0  0  0  0  0  0
  -48.0109   60.8345   65.4123 C   0  0  0  0  0  0  0  0  0  0  0  0
  -48.5349   59.5881   66.0801 C   0  0  0  0  0  0  0  0  0  0  0  0
  -49.9214   59.2351   65.5527 C   0  0  0  0  0  0  0  0  0  0  0  0
  -50.5781   60.4640   64.9245 C   0  0  0  0  0  0  0  0  0  0  0  0
  -51.1759   60.1478   63.5544 C   0  0  0  0  0  0  0  0  0  0  0  0
  -50.1258   59.5949   62.5875 C   0  0  0  0  0  0  0  0  0  0  0  0
  -50.5266   58.2540   61.9781 C   0  0  0  0  0  0  0  0  0  0  0  0
  7  8  2  0  0  0
  7  6  1  0  0  0
  7  9  1  0  0  0
  6  5  1  0  0  0
  9 10  1  0  0  0
  5  4  1  0  0  0
  4  3  1  0  0  0
  3  2  1  0  0  0
  2  1  1  0  0  0
  1 11  1  0  0  0
 11 12  1  0  0  0
 12 13  2  0  0  0
 13 14  1  0  0  0
 14 15  1  0  0  0
 15 16  1  0  0  0
 16 17  1  0  0  0
 17 18  1  0  0  0
 18 19  1  0  0  0
M  END
> <minimizedAffinity>
-6.40663

> <CNNscore>
0.5861038566

> <CNNaffinity>
5.9071455002

> <CNN_VS>
3.4622006416

> <CNNaffinity_variance>
0.2332952023

$$$$
/media/chris/experiments/cd1a-new-docking/inputs/ligands/4x6d_2_ligand.pdb


 19 18  0  0  0  0  0  0  0  0999 V2000
  -43.1413   59.9044   65.8721 C   0  0  0  0  0  0  0  0  0  0  0  0
  -43.3834   60.8329   64.6901 C   0  0  0  0  0  0  0  0  0  0  0  0
  -42.2020   60.8807   63.7362 C   0  0  0  0  0  0  0  0  0  0  0  0
  -41.0650   60.0229   64.2664 C   0  0  0  0  0  0  0  0  0  0  0  0
  -39.8459   60.2190   63.3832 C   0  0  0  0  0  0  0  0  0  0  0  0
  -40.2037   60.9002   62.0719 C   0  0  0  0  0  0  0  0  0  0  0  0
  -39.0189   60.8334   61.1406 C   0  0  0  0  0  0  0  0  0  0  0  0
  -37.9047   61.2466   61.5168 O   0  0  0  0  0  0  0  0  0  0  0  0
  -39.1294   60.3724   59.9847 O   0  0  0  0  0  0  0  0  0  0  0  0
  -39.9587   60.0569   59.6834 H   0  0  0  0  0  0  0  0  0  0  0  0
  -44.4855   59.6774   66.5485 C   0  0  0  0  0  0  0  0  0  0  0  0
  -45.3816   58.7831   65.7258 C   0  0  0  0  0  0  0  0  0  0  0  0
  -46.6284   59.3230   65.1607 C   0  0  0  0  0  0  0  0  0  0  0  0
  -47.0956   60.6897   65.5944 C   0  0  0  0  0  0  0  0  0  0  0  0
  -48.5680   60.6568   65.9895 C   0  0  0  0  0  0  0  0  0  0  0  0
  -49.4370   61.1630   64.8384 C   0  0  0  0  0  0  0  0  0  0  0  0
  -50.6768   60.2922   64.6403 C   0  0  0  0  0  0  0  0  0  0  0  0
  -50.8428   59.8594   63.1813 C   0  0  0  0  0  0  0  0  0  0  0  0
  -50.1482   58.5360   62.8714 C   0  0  0  0  0  0  0  0  0  0  0  0
  7  8  2  0  0  0
  7  6  1  0  0  0
  7  9  1  0  0  0
  6  5  1  0  0  0
  9 10  1  0  0  0
  5  4  1  0  0  0
  4  3  1  0  0  0
  3  2  1  0  0  0
  2  1  1  0  0  0
  1 11  1  0  0  0
 11 12  1  0  0  0
 12 13  2  0  0  0
 13 14  1  0  0  0
 14 15  1  0  0  0
 15 16  1  0  0  0
 16 17  1  0  0  0
 17 18  1  0  0  0
 18 19  1  0  0  0
M  END
> <minimizedAffinity>
-6.36409

> <CNNscore>
0.5707299709

> <CNNaffinity>
5.8974204063

> <CNN_VS>
3.3658344746

> <CNNaffinity_variance>
0.1231809631

$$$$
/media/chris/experiments/cd1a-new-docking/inputs/ligands/4x6d_2_ligand.pdb


 19 18  0  0  0  0  0  0  0  0999 V2000
  -37.7538   57.7725   63.1686 C   0  0  0  0  0  0  0  0  0  0  0  0
  -38.1284   58.5905   61.9404 C   0  0  0  0  0  0  0  0  0  0  0  0
  -37.2484   58.2775   60.7422 C   0  0  0  0  0  0  0  0  0  0  0  0
  -36.5379   56.9496   60.9462 C   0  0  0  0  0  0  0  0  0  0  0  0
  -35.1067   57.0756   60.4558 C   0  0  0  0  0  0  0  0  0  0  0  0
  -34.4059   55.7270   60.4101 C   0  0  0  0  0  0  0  0  0  0  0  0
  -35.1033   54.8410   59.4080 C   0  0  0  0  0  0  0  0  0  0  0  0
  -35.5188   55.3190   58.3344 O   0  0  0  0  0  0  0  0  0  0  0  0
  -35.2813   53.6250   59.6327 O   0  0  0  0  0  0  0  0  0  0  0  0
  -34.9763   53.2471   60.4341 H   0  0  0  0  0  0  0  0  0  0  0  0
  -38.7355   58.1412   64.2713 C   0  0  0  0  0  0  0  0  0  0  0  0
  -39.5284   59.3782   63.9235 C   0  0  0  0  0  0  0  0  0  0  0  0
  -40.8387   59.6044   64.5537 C   0  0  0  0  0  0  0  0  0  0  0  0
  -41.4614   58.4948   65.3634 C   0  0  0  0  0  0  0  0  0  0  0  0
  -42.4032   59.0609   66.4206 C   0  0  0  0  0  0  0  0  0  0  0  0
  -43.3219   60.1144   65.8023 C   0  0  0  0  0  0  0  0  0  0  0  0
  -44.7776   59.6507   65.7766 C   0  0  0  0  0  0  0  0  0  0  0  0
  -44.8928   58.1271   65.8718 C   0  0  0  0  0  0  0  0  0  0  0  0
  -46.1352   57.6716   66.6325 C   0  0  0  0  0  0  0  0  0  0  0  0
  7  8  2  0  0  0
  7  6  1  0  0  0
  7  9  1  0  0  0
  6  5  1  0  0  0
  9 10  1  0  0  0
  5  4  1  0  0  0
  4  3  1  0  0  0
  3  2  1  0  0  0
  2  1  1  0  0  0
  1 11  1  0  0  0
 11 12  1  0  0  0
 12 13  2  0  0  0
 13 14  1  0  0  0
 14 15  1  0  0  0
 15 16  1  0  0  0
 16 17  1  0  0  0
 17 18  1  0  0  0
 18 19  1  0  0  0
M  END
> <minimizedAffinity>
-6.24933

> <CNNscore>
0.5634440184

> <CNNaffinity>
5.5400004387

> <CNN_VS>
3.1214802265

> <CNNaffinity_variance>
0.0600876622

$$$$
/media/chris/experiments/cd1a-new-docking/inputs/ligands/4x6d_2_ligand.pdb


 19 18  0  0  0  0  0  0  0  0999 V2000
  -41.2761   59.1832   66.0529 C   0  0  0  0  0  0  0  0  0  0  0  0
  -40.5848   58.3702   64.9670 C   0  0  0  0  0  0  0  0  0  0  0  0
  -39.3472   59.0619   64.4212 C   0  0  0  0  0  0  0  0  0  0  0  0
  -38.8382   58.3309   63.1898 C   0  0  0  0  0  0  0  0  0  0  0  0
  -37.5979   59.0381   62.6739 C   0  0  0  0  0  0  0  0  0  0  0  0
  -37.6861   59.3136   61.1812 C   0  0  0  0  0  0  0  0  0  0  0  0
  -38.3880   60.6307   60.9621 C   0  0  0  0  0  0  0  0  0  0  0  0
  -39.4103   60.6829   60.2508 O   0  0  0  0  0  0  0  0  0  0  0  0
  -37.9617   61.6852   61.4791 O   0  0  0  0  0  0  0  0  0  0  0  0
  -37.1947   61.6665   62.0170 H   0  0  0  0  0  0  0  0  0  0  0  0
  -42.5543   58.4449   66.4226 C   0  0  0  0  0  0  0  0  0  0  0  0
  -43.3402   58.0398   65.1987 C   0  0  0  0  0  0  0  0  0  0  0  0
  -44.5776   58.7589   64.8568 C   0  0  0  0  0  0  0  0  0  0  0  0
  -45.1527   59.7368   65.8505 C   0  0  0  0  0  0  0  0  0  0  0  0
  -46.3528   60.4667   65.2571 C   0  0  0  0  0  0  0  0  0  0  0  0
  -47.6289   60.0851   66.0068 C   0  0  0  0  0  0  0  0  0  0  0  0
  -48.2776   58.8328   65.4187 C   0  0  0  0  0  0  0  0  0  0  0  0
  -49.7975   58.8385   65.6007 C   0  0  0  0  0  0  0  0  0  0  0  0
  -50.3757   60.2456   65.7265 C   0  0  0  0  0  0  0  0  0  0  0  0
  7  8  2  0  0  0
  7  6  1  0  0  0
  7  9  1  0  0  0
  6  5  1  0  0  0
  9 10  1  0  0  0
  5  4  1  0  0  0
  4  3  1  0  0  0
  3  2  1  0  0  0
  2  1  1  0  0  0
  1 11  1  0  0  0
 11 12  1  0  0  0
 12 13  2  0  0  0
 13 14  1  0  0  0
 14 15  1  0  0  0
 15 16  1  0  0  0
 16 17  1  0  0  0
 17 18  1  0  0  0
 18 19  1  0  0  0
M  END
> <minimizedAffinity>
-6.38563

> <CNNscore>
0.5615755916

> <CNNaffinity>
5.8225722313

> <CNN_VS>
3.2698144913

> <CNNaffinity_variance>
0.1999271959

$$$$
