/media/chris/experiments/cd1a-new-docking/inputs/ligands/4x6d_2_ligand.pdb


 19 18  0  0  0  0  0  0  0  0999 V2000
  -46.3620   59.7015   66.7473 C   0  0  0  0  0  0  0  0  0  0  0  0
  -45.5063   59.5463   65.4977 C   0  0  0  0  0  0  0  0  0  0  0  0
  -44.1501   60.2173   65.6340 C   0  0  0  0  0  0  0  0  0  0  0  0
  -43.1033   59.2018   66.0618 C   0  0  0  0  0  0  0  0  0  0  0  0
  -41.9684   59.9281   66.7612 C   0  0  0  0  0  0  0  0  0  0  0  0
  -40.7094   59.9588   65.9095 C   0  0  0  0  0  0  0  0  0  0  0  0
  -40.2352   61.3849   65.7790 C   0  0  0  0  0  0  0  0  0  0  0  0
  -39.0169   61.6444   65.8226 O   0  0  0  0  0  0  0  0  0  0  0  0
  -41.0445   62.3251   65.6311 O   0  0  0  0  0  0  0  0  0  0  0  0
  -41.9644   62.1502   65.5959 H   0  0  0  0  0  0  0  0  0  0  0  0
  -47.7965   59.9153   66.2865 C   0  0  0  0  0  0  0  0  0  0  0  0
  -47.8921   60.9996   65.2402 C   0  0  0  0  0  0  0  0  0  0  0  0
  -49.0255   61.0081   64.3018 C   0  0  0  0  0  0  0  0  0  0  0  0
  -49.9485   59.8162   64.2599 C   0  0  0  0  0  0  0  0  0  0  0  0
  -50.5994   59.6854   62.8874 C   0  0  0  0  0  0  0  0  0  0  0  0
  -49.8445   58.6631   62.0381 C   0  0  0  0  0  0  0  0  0  0  0  0
  -50.7899   57.8611   61.1449 C   0  0  0  0  0  0  0  0  0  0  0  0
  -50.4240   57.9916   59.6642 C   0  0  0  0  0  0  0  0  0  0  0  0
  -48.9176   58.0652   59.4286 C   0  0  0  0  0  0  0  0  0  0  0  0
  7  8  2  0  0  0
  7  6  1  0  0  0
  7  9  1  0  0  0
  6  5  1  0  0  0
  9 10  1  0  0  0
  5  4  1  0  0  0
  4  3  1  0  0  0
  3  2  1  0  0  0
  2  1  1  0  0  0
  1 11  1  0  0  0
 11 12  1  0  0  0
 12 13  2  0  0  0
 13 14  1  0  0  0
 14 15  1  0  0  0
 15 16  1  0  0  0
 16 17  1  0  0  0
 17 18  1  0  0  0
 18 19  1  0  0  0
M  END
> <minimizedAffinity>
-6.83091

> <CNNscore>
0.8608207703

> <CNNaffinity>
6.2870635986

> <CNN_VS>
5.4120349884

> <CNNaffinity_variance>
0.5765535831

$$$$
/media/chris/experiments/cd1a-new-docking/inputs/ligands/4x6d_2_ligand.pdb


 19 18  0  0  0  0  0  0  0  0999 V2000
  -49.9691   59.1085   65.0386 C   0  0  0  0  0  0  0  0  0  0  0  0
  -48.9775   57.9732   65.2519 C   0  0  0  0  0  0  0  0  0  0  0  0
  -47.5597   58.3587   64.8656 C   0  0  0  0  0  0  0  0  0  0  0  0
  -46.5591   57.6216   65.7405 C   0  0  0  0  0  0  0  0  0  0  0  0
  -45.9130   58.6118   66.6927 C   0  0  0  0  0  0  0  0  0  0  0  0
  -45.6601   59.9537   66.0242 C   0  0  0  0  0  0  0  0  0  0  0  0
  -44.1801   60.1135   65.7803 C   0  0  0  0  0  0  0  0  0  0  0  0
  -43.7302   60.0686   64.6188 O   0  0  0  0  0  0  0  0  0  0  0  0
  -43.3833   60.2876   66.7266 O   0  0  0  0  0  0  0  0  0  0  0  0
  -43.7023   60.3243   67.6069 H   0  0  0  0  0  0  0  0  0  0  0  0
  -49.6526   59.7344   63.6880 C   0  0  0  0  0  0  0  0  0  0  0  0
  -50.7812   59.5413   62.7038 C   0  0  0  0  0  0  0  0  0  0  0  0
  -50.6020   58.6343   61.5590 C   0  0  0  0  0  0  0  0  0  0  0  0
  -49.2270   58.0870   61.2687 C   0  0  0  0  0  0  0  0  0  0  0  0
  -49.2252   57.2955   59.9655 C   0  0  0  0  0  0  0  0  0  0  0  0
  -47.8095   57.2183   59.3944 C   0  0  0  0  0  0  0  0  0  0  0  0
  -47.5500   58.3253   58.3738 C   0  0  0  0  0  0  0  0  0  0  0  0
  -47.3093   57.7628   56.9705 C   0  0  0  0  0  0  0  0  0  0  0  0
  -47.8545   56.3478   56.7959 C   0  0  0  0  0  0  0  0  0  0  0  0
  7  8  2  0  0  0
  7  6  1  0  0  0
  7  9  1  0  0  0
  6  5  1  0  0  0
  9 10  1  0  0  0
  5  4  1  0  0  0
  4  3  1  0  0  0
  3  2  1  0  0  0
  2  1  1  0  0  0
  1 11  1  0  0  0
 11 12  1  0  0  0
 12 13  2  0  0  0
 13 14  1  0  0  0
 14 15  1  0  0  0
 15 16  1  0  0  0
 16 17  1  0  0  0
 17 18  1  0  0  0
 18 19  1  0  0  0
M  END
> <minimizedAffinity>
-6.74053

> <CNNscore>
0.7542024255

> <CNNaffinity>
6.4703512192

> <CNN_VS>
4.8799548149

> <CNNaffinity_variance>
0.3037208915

$$$$
/media/chris/experiments/cd1a-new-docking/inputs/ligands/4x6d_2_ligand.pdb


 19 18  0  0  0  0  0  0  0  0999 V2000
  -45.5946   59.5501   66.7809 C   0  0  0  0  0  0  0  0  0  0  0  0
  -44.3553   59.7650   65.9232 C   0  0  0  0  0  0  0  0  0  0  0  0
  -43.1214   60.0789   66.7521 C   0  0  0  0  0  0  0  0  0  0  0  0
  -42.0555   59.0188   66.5278 C   0  0  0  0  0  0  0  0  0  0  0  0
  -40.8300   59.6733   65.9159 C   0  0  0  0  0  0  0  0  0  0  0  0
  -40.1717   58.7777   64.8785 C   0  0  0  0  0  0  0  0  0  0  0  0
  -38.6743   58.9392   64.9646 C   0  0  0  0  0  0  0  0  0  0  0  0
  -38.1791   60.0606   65.1905 O   0  0  0  0  0  0  0  0  0  0  0  0
  -37.9082   57.9649   64.8085 O   0  0  0  0  0  0  0  0  0  0  0  0
  -38.2613   57.1138   64.6379 H   0  0  0  0  0  0  0  0  0  0  0  0
  -46.7824   59.4421   65.8358 C   0  0  0  0  0  0  0  0  0  0  0  0
  -47.1462   60.7806   65.2394 C   0  0  0  0  0  0  0  0  0  0  0  0
  -48.5613   61.1211   65.0229 C   0  0  0  0  0  0  0  0  0  0  0  0
  -49.6058   60.0469   65.1947 C   0  0  0  0  0  0  0  0  0  0  0  0
  -50.8958   60.4285   64.4769 C   0  0  0  0  0  0  0  0  0  0  0  0
  -50.9033   59.8554   63.0600 C   0  0  0  0  0  0  0  0  0  0  0  0
  -50.1511   58.5277   62.9827 C   0  0  0  0  0  0  0  0  0  0  0  0
  -49.8043   58.1514   61.5399 C   0  0  0  0  0  0  0  0  0  0  0  0
  -50.9841   57.5463   60.7836 C   0  0  0  0  0  0  0  0  0  0  0  0
  7  8  2  0  0  0
  7  6  1  0  0  0
  7  9  1  0  0  0
  6  5  1  0  0  0
  9 10  1  0  0  0
  5  4  1  0  0  0
  4  3  1  0  0  0
  3  2  1  0  0  0
  2  1  1  0  0  0
  1 11  1  0  0  0
 11 12  1  0  0  0
 12 13  2  0  0  0
 13 14  1  0  0  0
 14 15  1  0  0  0
 15 16  1  0  0  0
 16 17  1  0  0  0
 17 18  1  0  0  0
 18 19  1  0  0  0
M  END
> <minimizedAffinity>
-6.66753

> <CNNscore>
0.7370389700

> <CNNaffinity>
6.1610379219

> <CNN_VS>
4.5409250259

> <CNNaffinity_variance>
0.3747873008

$$$$
/media/chris/experiments/cd1a-new-docking/inputs/ligands/4x6d_2_ligand.pdb


 19 18  0  0  0  0  0  0  0  0999 V2000
  -48.8408   58.1299   65.1788 C   0  0  0  0  0  0  0  0  0  0  0  0
  -47.5398   58.7381   64.6736 C   0  0  0  0  0  0  0  0  0  0  0  0
  -46.4279   58.6745   65.7068 C   0  0  0  0  0  0  0  0  0  0  0  0
  -45.6563   57.3725   65.5674 C   0  0  0  0  0  0  0  0  0  0  0  0
  -44.3901   57.6323   64.7714 C   0  0  0  0  0  0  0  0  0  0  0  0
  -43.1521   57.5931   65.6531 C   0  0  0  0  0  0  0  0  0  0  0  0
  -42.3505   58.8525   65.4364 C   0  0  0  0  0  0  0  0  0  0  0  0
  -41.3067   59.0484   66.0889 O   0  0  0  0  0  0  0  0  0  0  0  0
  -42.7145   59.7174   64.6117 O   0  0  0  0  0  0  0  0  0  0  0  0
  -43.4963   59.5884   64.1116 H   0  0  0  0  0  0  0  0  0  0  0  0
  -49.9794   58.8614   64.4829 C   0  0  0  0  0  0  0  0  0  0  0  0
  -49.4755   59.7560   63.3758 C   0  0  0  0  0  0  0  0  0  0  0  0
  -49.9627   59.5587   62.0014 C   0  0  0  0  0  0  0  0  0  0  0  0
  -50.7835   58.3335   61.6859 C   0  0  0  0  0  0  0  0  0  0  0  0
  -50.0527   57.4346   60.6946 C   0  0  0  0  0  0  0  0  0  0  0  0
  -50.1970   57.9835   59.2754 C   0  0  0  0  0  0  0  0  0  0  0  0
  -49.0324   57.5573   58.3828 C   0  0  0  0  0  0  0  0  0  0  0  0
  -47.7153   58.2076   58.8140 C   0  0  0  0  0  0  0  0  0  0  0  0
  -46.7781   58.4856   57.6417 C   0  0  0  0  0  0  0  0  0  0  0  0
  7  8  2  0  0  0
  7  6  1  0  0  0
  7  9  1  0  0  0
  6  5  1  0  0  0
  9 10  1  0  0  0
  5  4  1  0  0  0
  4  3  1  0  0  0
  3  2  1  0  0  0
  2  1  1  0  0  0
  1 11  1  0  0  0
 11 12  1  0  0  0
 12 13  2  0  0  0
 13 14  1  0  0  0
 14 15  1  0  0  0
 15 16  1  0  0  0
 16 17  1  0  0  0
 17 18  1  0  0  0
 18 19  1  0  0  0
M  END
> <minimizedAffinity>
-6.90552

> <CNNscore>
0.7325789332

> <CNNaffinity>
6.3717970848

> <CNN_VS>
4.6678442955

> <CNNaffinity_variance>
0.2994326353

$$$$
/media/chris/experiments/cd1a-new-docking/inputs/ligands/4x6d_2_ligand.pdb


 19 18  0  0  0  0  0  0  0  0999 V2000
  -42.2119   58.8437   66.5304 C   0  0  0  0  0  0  0  0  0  0  0  0
  -40.9296   59.5182   66.0631 C   0  0  0  0  0  0  0  0  0  0  0  0
  -40.7403   59.4293   64.5584 C   0  0  0  0  0  0  0  0  0  0  0  0
  -39.4677   58.6640   64.2343 C   0  0  0  0  0  0  0  0  0  0  0  0
  -38.8307   59.2681   62.9958 C   0  0  0  0  0  0  0  0  0  0  0  0
  -39.6558   60.4189   62.4420 C   0  0  0  0  0  0  0  0  0  0  0  0
  -39.1256   60.7976   61.0814 C   0  0  0  0  0  0  0  0  0  0  0  0
  -37.8975   60.8018   60.8688 O   0  0  0  0  0  0  0  0  0  0  0  0
  -39.8972   61.1157   60.1518 O   0  0  0  0  0  0  0  0  0  0  0  0
  -40.8236   61.1186   60.2920 H   0  0  0  0  0  0  0  0  0  0  0  0
  -43.1629   58.8136   65.3427 C   0  0  0  0  0  0  0  0  0  0  0  0
  -44.1240   57.6521   65.4251 C   0  0  0  0  0  0  0  0  0  0  0  0
  -45.5497   57.9038   65.6881 C   0  0  0  0  0  0  0  0  0  0  0  0
  -45.9853   59.2914   66.0870 C   0  0  0  0  0  0  0  0  0  0  0  0
  -47.2095   59.7237   65.2874 C   0  0  0  0  0  0  0  0  0  0  0  0
  -48.0003   58.4998   64.8259 C   0  0  0  0  0  0  0  0  0  0  0  0
  -48.8512   58.8073   63.5946 C   0  0  0  0  0  0  0  0  0  0  0  0
  -49.4977   60.1923   63.6792 C   0  0  0  0  0  0  0  0  0  0  0  0
  -50.7412   60.2147   64.5642 C   0  0  0  0  0  0  0  0  0  0  0  0
  7  8  2  0  0  0
  7  6  1  0  0  0
  7  9  1  0  0  0
  6  5  1  0  0  0
  9 10  1  0  0  0
  5  4  1  0  0  0
  4  3  1  0  0  0
  3  2  1  0  0  0
  2  1  1  0  0  0
  1 11  1  0  0  0
 11 12  1  0  0  0
 12 13  2  0  0  0
 13 14  1  0  0  0
 14 15  1  0  0  0
 15 16  1  0  0  0
 16 17  1  0  0  0
 17 18  1  0  0  0
 18 19  1  0  0  0
M  END
> <minimizedAffinity>
-6.27937

> <CNNscore>
0.6432319880

> <CNNaffinity>
6.1511487961

> <CNN_VS>
3.9566156864

> <CNNaffinity_variance>
0.5571365952

$$$$
/media/chris/experiments/cd1a-new-docking/inputs/ligands/4x6d_2_ligand.pdb


 19 18  0  0  0  0  0  0  0  0999 V2000
  -48.6148   61.4790   64.8923 C   0  0  0  0  0  0  0  0  0  0  0  0
  -47.6063   60.5210   65.5109 C   0  0  0  0  0  0  0  0  0  0  0  0
  -46.1716   60.8867   65.1703 C   0  0  0  0  0  0  0  0  0  0  0  0
  -45.2103   59.9211   65.8437 C   0  0  0  0  0  0  0  0  0  0  0  0
  -44.0163   59.6982   64.9329 C   0  0  0  0  0  0  0  0  0  0  0  0
  -42.8213   60.5383   65.3546 C   0  0  0  0  0  0  0  0  0  0  0  0
  -42.3739   60.1068   66.7291 C   0  0  0  0  0  0  0  0  0  0  0  0
  -41.8390   58.9926   66.8905 O   0  0  0  0  0  0  0  0  0  0  0  0
  -42.5325   60.8466   67.7233 O   0  0  0  0  0  0  0  0  0  0  0  0
  -42.9326   61.6878   67.6222 H   0  0  0  0  0  0  0  0  0  0  0  0
  -49.3713   60.7063   63.8216 C   0  0  0  0  0  0  0  0  0  0  0  0
  -49.4987   59.2433   64.1727 C   0  0  0  0  0  0  0  0  0  0  0  0
  -49.9096   58.2795   63.1394 C   0  0  0  0  0  0  0  0  0  0  0  0
  -50.4061   58.7977   61.8130 C   0  0  0  0  0  0  0  0  0  0  0  0
  -50.8258   57.6459   60.9064 C   0  0  0  0  0  0  0  0  0  0  0  0
  -49.6106   57.0786   60.1731 C   0  0  0  0  0  0  0  0  0  0  0  0
  -48.6657   58.1842   59.7046 C   0  0  0  0  0  0  0  0  0  0  0  0
  -47.4657   57.6223   58.9379 C   0  0  0  0  0  0  0  0  0  0  0  0
  -46.9584   58.5679   57.8523 C   0  0  0  0  0  0  0  0  0  0  0  0
  7  8  2  0  0  0
  7  6  1  0  0  0
  7  9  1  0  0  0
  6  5  1  0  0  0
  9 10  1  0  0  0
  5  4  1  0  0  0
  4  3  1  0  0  0
  3  2  1  0  0  0
  2  1  1  0  0  0
  1 11  1  0  0  0
 11 12  1  0  0  0
 12 13  2  0  0  0
 13 14  1  0  0  0
 14 15  1  0  0  0
 15 16  1  0  0  0
 16 17  1  0  0  0
 17 18  1  0  0  0
 18 19  1  0  0  0
M  END
> <minimizedAffinity>
-7.15528

> <CNNscore>
0.6400689483

> <CNNaffinity>
6.1739549637

> <CNN_VS>
3.9517569542

> <CNNaffinity_variance>
0.3145673871

$$$$
/media/chris/experiments/cd1a-new-docking/inputs/ligands/4x6d_2_ligand.pdb


 19 18  0  0  0  0  0  0  0  0999 V2000
  -46.4234   60.8909   65.0828 C   0  0  0  0  0  0  0  0  0  0  0  0
  -45.4667   59.7280   65.3068 C   0  0  0  0  0  0  0  0  0  0  0  0
  -44.6360   59.8926   66.5681 C   0  0  0  0  0  0  0  0  0  0  0  0
  -43.1878   60.1810   66.2082 C   0  0  0  0  0  0  0  0  0  0  0  0
  -42.9846   59.9126   64.7279 C   0  0  0  0  0  0  0  0  0  0  0  0
  -41.6027   60.3425   64.2617 C   0  0  0  0  0  0  0  0  0  0  0  0
  -41.7474   61.3254   63.1265 C   0  0  0  0  0  0  0  0  0  0  0  0
  -42.5076   62.3063   63.2429 O   0  0  0  0  0  0  0  0  0  0  0  0
  -41.1193   61.1758   62.0570 O   0  0  0  0  0  0  0  0  0  0  0  0
  -40.5430   60.4447   61.9504 H   0  0  0  0  0  0  0  0  0  0  0  0
  -47.8338   60.3195   65.0829 C   0  0  0  0  0  0  0  0  0  0  0  0
  -47.8442   58.8556   64.7130 C   0  0  0  0  0  0  0  0  0  0  0  0
  -48.9582   58.3130   63.9193 C   0  0  0  0  0  0  0  0  0  0  0  0
  -50.1719   59.1751   63.6786 C   0  0  0  0  0  0  0  0  0  0  0  0
  -50.4504   59.3106   62.1857 C   0  0  0  0  0  0  0  0  0  0  0  0
  -49.9668   58.0663   61.4413 C   0  0  0  0  0  0  0  0  0  0  0  0
  -50.6079   57.9489   60.0593 C   0  0  0  0  0  0  0  0  0  0  0  0
  -49.5801   57.5942   58.9817 C   0  0  0  0  0  0  0  0  0  0  0  0
  -48.1811   58.1149   59.3005 C   0  0  0  0  0  0  0  0  0  0  0  0
  7  8  2  0  0  0
  7  6  1  0  0  0
  7  9  1  0  0  0
  6  5  1  0  0  0
  9 10  1  0  0  0
  5  4  1  0  0  0
  4  3  1  0  0  0
  3  2  1  0  0  0
  2  1  1  0  0  0
  1 11  1  0  0  0
 11 12  1  0  0  0
 12 13  2  0  0  0
 13 14  1  0  0  0
 14 15  1  0  0  0
 15 16  1  0  0  0
 16 17  1  0  0  0
 17 18  1  0  0  0
 18 19  1  0  0  0
M  END
> <minimizedAffinity>
-6.53176

> <CNNscore>
0.6266909838

> <CNNaffinity>
6.1050319672

> <CNN_VS>
3.8259685040

> <CNNaffinity_variance>
0.3130076528

$$$$
/media/chris/experiments/cd1a-new-docking/inputs/ligands/4x6d_2_ligand.pdb


 19 18  0  0  0  0  0  0  0  0999 V2000
  -44.1404   60.0847   65.1589 C   0  0  0  0  0  0  0  0  0  0  0  0
  -43.8499   59.4713   66.5216 C   0  0  0  0  0  0  0  0  0  0  0  0
  -42.3954   59.0606   66.6767 C   0  0  0  0  0  0  0  0  0  0  0  0
  -41.8403   58.5838   65.3447 C   0  0  0  0  0  0  0  0  0  0  0  0
  -40.4190   59.0945   65.1913 C   0  0  0  0  0  0  0  0  0  0  0  0
  -40.3765   60.4378   64.4804 C   0  0  0  0  0  0  0  0  0  0  0  0
  -39.9946   61.5096   65.4709 C   0  0  0  0  0  0  0  0  0  0  0  0
  -40.8763   62.0903   66.1335 O   0  0  0  0  0  0  0  0  0  0  0  0
  -38.8012   61.8369   65.6423 O   0  0  0  0  0  0  0  0  0  0  0  0
  -38.1240   61.4119   65.1536 H   0  0  0  0  0  0  0  0  0  0  0  0
  -45.6091   60.4829   65.1487 C   0  0  0  0  0  0  0  0  0  0  0  0
  -46.3702   59.8422   66.2846 C   0  0  0  0  0  0  0  0  0  0  0  0
  -47.4431   58.8790   65.9905 C   0  0  0  0  0  0  0  0  0  0  0  0
  -47.9085   58.7163   64.5653 C   0  0  0  0  0  0  0  0  0  0  0  0
  -49.4310   58.6701   64.4965 C   0  0  0  0  0  0  0  0  0  0  0  0
  -49.9667   59.9069   63.7756 C   0  0  0  0  0  0  0  0  0  0  0  0
  -50.9714   59.5358   62.6859 C   0  0  0  0  0  0  0  0  0  0  0  0
  -50.2803   58.9819   61.4373 C   0  0  0  0  0  0  0  0  0  0  0  0
  -50.8043   57.6078   61.0282 C   0  0  0  0  0  0  0  0  0  0  0  0
  7  8  2  0  0  0
  7  6  1  0  0  0
  7  9  1  0  0  0
  6  5  1  0  0  0
  9 10  1  0  0  0
  5  4  1  0  0  0
  4  3  1  0  0  0
  3  2  1  0  0  0
  2  1  1  0  0  0
  1 11  1  0  0  0
 11 12  1  0  0  0
 12 13  2  0  0  0
 13 14  1  0  0  0
 14 15  1  0  0  0
 15 16  1  0  0  0
 16 17  1  0  0  0
 17 18  1  0  0  0
 18 19  1  0  0  0
M  END
> <minimizedAffinity>
-6.47311

> <CNNscore>
0.6214107275

> <CNNaffinity>
6.0418272018

> <CNN_VS>
3.7544562817

> <CNNaffinity_variance>
0.1302199662

$$$$
/media/chris/experiments/cd1a-new-docking/inputs/ligands/4x6d_2_ligand.pdb


 19 18  0  0  0  0  0  0  0  0999 V2000
  -50.8414   59.5526   62.4884 C   0  0  0  0  0  0  0  0  0  0  0  0
  -49.9586   58.5222   61.7980 C   0  0  0  0  0  0  0  0  0  0  0  0
  -50.7283   57.6686   60.8046 C   0  0  0  0  0  0  0  0  0  0  0  0
  -50.3868   58.0823   59.3826 C   0  0  0  0  0  0  0  0  0  0  0  0
  -48.8787   58.0566   59.2102 C   0  0  0  0  0  0  0  0  0  0  0  0
  -48.4768   57.5287   57.8422 C   0  0  0  0  0  0  0  0  0  0  0  0
  -48.0339   56.0930   57.9767 C   0  0  0  0  0  0  0  0  0  0  0  0
  -47.8586   55.5969   59.1067 O   0  0  0  0  0  0  0  0  0  0  0  0
  -47.8313   55.3811   56.9703 O   0  0  0  0  0  0  0  0  0  0  0  0
  -47.9577   55.7360   56.1123 H   0  0  0  0  0  0  0  0  0  0  0  0
  -50.5059   59.5105   63.9722 C   0  0  0  0  0  0  0  0  0  0  0  0
  -49.3037   58.6400   64.2492 C   0  0  0  0  0  0  0  0  0  0  0  0
  -48.0555   59.2536   64.7299 C   0  0  0  0  0  0  0  0  0  0  0  0
  -47.9318   60.7566   64.7268 C   0  0  0  0  0  0  0  0  0  0  0  0
  -46.4850   61.1796   64.9560 C   0  0  0  0  0  0  0  0  0  0  0  0
  -45.6707   60.0080   65.5043 C   0  0  0  0  0  0  0  0  0  0  0  0
  -44.1694   60.2856   65.4453 C   0  0  0  0  0  0  0  0  0  0  0  0
  -43.4922   60.0516   66.7981 C   0  0  0  0  0  0  0  0  0  0  0  0
  -42.0147   59.6910   66.6686 C   0  0  0  0  0  0  0  0  0  0  0  0
  7  8  2  0  0  0
  7  6  1  0  0  0
  7  9  1  0  0  0
  6  5  1  0  0  0
  9 10  1  0  0  0
  5  4  1  0  0  0
  4  3  1  0  0  0
  3  2  1  0  0  0
  2  1  1  0  0  0
  1 11  1  0  0  0
 11 12  1  0  0  0
 12 13  2  0  0  0
 13 14  1  0  0  0
 14 15  1  0  0  0
 15 16  1  0  0  0
 16 17  1  0  0  0
 17 18  1  0  0  0
 18 19  1  0  0  0
M  END
> <minimizedAffinity>
-7.24768

> <CNNscore>
0.6154661179

> <CNNaffinity>
6.2880778313

> <CNN_VS>
3.8700988293

> <CNNaffinity_variance>
0.4029774666

$$$$
