/media/chris/experiments/cd1a-new-docking/inputs/ligands/4x6d_2_ligand.pdb


 19 18  0  0  0  0  0  0  0  0999 V2000
  -44.6724   57.5167   64.8050 C   0  0  0  0  0  0  0  0  0  0  0  0
  -43.8215   57.9995   65.9714 C   0  0  0  0  0  0  0  0  0  0  0  0
  -42.3943   58.3170   65.5583 C   0  0  0  0  0  0  0  0  0  0  0  0
  -42.3419   59.6553   64.8397 C   0  0  0  0  0  0  0  0  0  0  0  0
  -40.9364   59.8763   64.3104 C   0  0  0  0  0  0  0  0  0  0  0  0
  -39.8974   59.7905   65.4171 C   0  0  0  0  0  0  0  0  0  0  0  0
  -39.3872   61.1764   65.7247 C   0  0  0  0  0  0  0  0  0  0  0  0
  -38.1637   61.3773   65.8528 O   0  0  0  0  0  0  0  0  0  0  0  0
  -40.1714   62.1395   65.8605 O   0  0  0  0  0  0  0  0  0  0  0  0
  -41.0946   62.0086   65.7680 H   0  0  0  0  0  0  0  0  0  0  0  0
  -45.9436   58.3533   64.7989 C   0  0  0  0  0  0  0  0  0  0  0  0
  -47.0581   57.6828   65.5657 C   0  0  0  0  0  0  0  0  0  0  0  0
  -48.4515   57.8551   65.1251 C   0  0  0  0  0  0  0  0  0  0  0  0
  -48.7587   58.8708   64.0535 C   0  0  0  0  0  0  0  0  0  0  0  0
  -50.2635   59.0786   63.9220 C   0  0  0  0  0  0  0  0  0  0  0  0
  -50.5868   59.7971   62.6122 C   0  0  0  0  0  0  0  0  0  0  0  0
  -50.0485   59.0360   61.4015 C   0  0  0  0  0  0  0  0  0  0  0  0
  -50.7592   57.6939   61.2092 C   0  0  0  0  0  0  0  0  0  0  0  0
  -49.9139   56.6778   60.4457 C   0  0  0  0  0  0  0  0  0  0  0  0
  7  8  2  0  0  0
  7  6  1  0  0  0
  7  9  1  0  0  0
  6  5  1  0  0  0
  9 10  1  0  0  0
  5  4  1  0  0  0
  4  3  1  0  0  0
  3  2  1  0  0  0
  2  1  1  0  0  0
  1 11  1  0  0  0
 11 12  1  0  0  0
 12 13  2  0  0  0
 13 14  1  0  0  0
 14 15  1  0  0  0
 15 16  1  0  0  0
 16 17  1  0  0  0
 17 18  1  0  0  0
 18 19  1  0  0  0
M  END
> <minimizedAffinity>
-6.60988

> <CNNscore>
0.8184169531

> <CNNaffinity>
6.3645596504

> <CNN_VS>
5.2088637352

> <CNNaffinity_variance>
0.4064249992

$$$$
/media/chris/experiments/cd1a-new-docking/inputs/ligands/4x6d_2_ligand.pdb


 19 18  0  0  0  0  0  0  0  0999 V2000
  -47.3202   61.0983   65.1545 C   0  0  0  0  0  0  0  0  0  0  0  0
  -46.4690   59.8448   65.3026 C   0  0  0  0  0  0  0  0  0  0  0  0
  -44.9805   60.1492   65.3058 C   0  0  0  0  0  0  0  0  0  0  0  0
  -44.3487   59.6630   66.5998 C   0  0  0  0  0  0  0  0  0  0  0  0
  -43.0969   60.4768   66.8739 C   0  0  0  0  0  0  0  0  0  0  0  0
  -42.3774   60.8541   65.5887 C   0  0  0  0  0  0  0  0  0  0  0  0
  -40.9243   61.1189   65.8951 C   0  0  0  0  0  0  0  0  0  0  0  0
  -40.1492   60.1678   66.1153 O   0  0  0  0  0  0  0  0  0  0  0  0
  -40.4736   62.2833   65.9388 O   0  0  0  0  0  0  0  0  0  0  0  0
  -41.0406   63.0115   65.7762 H   0  0  0  0  0  0  0  0  0  0  0  0
  -48.5697   60.7047   64.3801 C   0  0  0  0  0  0  0  0  0  0  0  0
  -49.0267   59.3084   64.7281 C   0  0  0  0  0  0  0  0  0  0  0  0
  -49.6210   58.4559   63.6863 C   0  0  0  0  0  0  0  0  0  0  0  0
  -49.9631   59.0658   62.3502 C   0  0  0  0  0  0  0  0  0  0  0  0
  -50.6484   58.0439   61.4497 C   0  0  0  0  0  0  0  0  0  0  0  0
  -49.9675   58.0017   60.0819 C   0  0  0  0  0  0  0  0  0  0  0  0
  -48.4448   57.9872   60.2082 C   0  0  0  0  0  0  0  0  0  0  0  0
  -47.7700   57.5086   58.9203 C   0  0  0  0  0  0  0  0  0  0  0  0
  -48.7442   57.3765   57.7526 C   0  0  0  0  0  0  0  0  0  0  0  0
  7  8  2  0  0  0
  7  6  1  0  0  0
  7  9  1  0  0  0
  6  5  1  0  0  0
  9 10  1  0  0  0
  5  4  1  0  0  0
  4  3  1  0  0  0
  3  2  1  0  0  0
  2  1  1  0  0  0
  1 11  1  0  0  0
 11 12  1  0  0  0
 12 13  2  0  0  0
 13 14  1  0  0  0
 14 15  1  0  0  0
 15 16  1  0  0  0
 16 17  1  0  0  0
 17 18  1  0  0  0
 18 19  1  0  0  0
M  END
> <minimizedAffinity>
-6.66762

> <CNNscore>
0.7861317992

> <CNNaffinity>
6.3652119637

> <CNN_VS>
5.0038957596

> <CNNaffinity_variance>
0.5173971653

$$$$
/media/chris/experiments/cd1a-new-docking/inputs/ligands/4x6d_2_ligand.pdb


 19 18  0  0  0  0  0  0  0  0999 V2000
  -46.0601   58.3956   64.7940 C   0  0  0  0  0  0  0  0  0  0  0  0
  -44.8079   57.6647   65.2582 C   0  0  0  0  0  0  0  0  0  0  0  0
  -43.9215   58.5300   66.1379 C   0  0  0  0  0  0  0  0  0  0  0  0
  -42.4968   58.5292   65.6085 C   0  0  0  0  0  0  0  0  0  0  0  0
  -41.6242   59.3517   66.5394 C   0  0  0  0  0  0  0  0  0  0  0  0
  -42.0960   60.7945   66.6259 C   0  0  0  0  0  0  0  0  0  0  0  0
  -41.3106   61.6310   65.6466 C   0  0  0  0  0  0  0  0  0  0  0  0
  -41.7357   61.7986   64.4869 O   0  0  0  0  0  0  0  0  0  0  0  0
  -40.2280   62.1630   65.9720 O   0  0  0  0  0  0  0  0  0  0  0  0
  -39.8918   62.0486   66.8392 H   0  0  0  0  0  0  0  0  0  0  0  0
  -46.4157   59.4087   65.8725 C   0  0  0  0  0  0  0  0  0  0  0  0
  -46.8426   60.7301   65.2797 C   0  0  0  0  0  0  0  0  0  0  0  0
  -48.2385   61.1739   65.4195 C   0  0  0  0  0  0  0  0  0  0  0  0
  -49.2626   60.2062   65.9571 C   0  0  0  0  0  0  0  0  0  0  0  0
  -50.5321   60.2392   65.1132 C   0  0  0  0  0  0  0  0  0  0  0  0
  -50.1886   60.0787   63.6325 C   0  0  0  0  0  0  0  0  0  0  0  0
  -50.0536   58.6084   63.2392 C   0  0  0  0  0  0  0  0  0  0  0  0
  -49.7770   58.4411   61.7430 C   0  0  0  0  0  0  0  0  0  0  0  0
  -50.8863   57.6872   61.0141 C   0  0  0  0  0  0  0  0  0  0  0  0
  7  8  2  0  0  0
  7  6  1  0  0  0
  7  9  1  0  0  0
  6  5  1  0  0  0
  9 10  1  0  0  0
  5  4  1  0  0  0
  4  3  1  0  0  0
  3  2  1  0  0  0
  2  1  1  0  0  0
  1 11  1  0  0  0
 11 12  1  0  0  0
 12 13  2  0  0  0
 13 14  1  0  0  0
 14 15  1  0  0  0
 15 16  1  0  0  0
 16 17  1  0  0  0
 17 18  1  0  0  0
 18 19  1  0  0  0
M  END
> <minimizedAffinity>
-6.74511

> <CNNscore>
0.7727414370

> <CNNaffinity>
6.1050963402

> <CNN_VS>
4.7176609039

> <CNNaffinity_variance>
0.3111275733

$$$$
/media/chris/experiments/cd1a-new-docking/inputs/ligands/4x6d_2_ligand.pdb


 19 18  0  0  0  0  0  0  0  0999 V2000
  -47.2058   57.3123   65.7124 C   0  0  0  0  0  0  0  0  0  0  0  0
  -45.9659   58.1883   65.8269 C   0  0  0  0  0  0  0  0  0  0  0  0
  -44.7047   57.4741   65.3714 C   0  0  0  0  0  0  0  0  0  0  0  0
  -43.6131   58.4848   65.0605 C   0  0  0  0  0  0  0  0  0  0  0  0
  -42.5328   58.3866   66.1225 C   0  0  0  0  0  0  0  0  0  0  0  0
  -41.4441   59.4279   65.9170 C   0  0  0  0  0  0  0  0  0  0  0  0
  -41.8584   60.7148   66.5860 C   0  0  0  0  0  0  0  0  0  0  0  0
  -41.4448   61.8068   66.1497 O   0  0  0  0  0  0  0  0  0  0  0  0
  -42.6120   60.7130   67.5825 O   0  0  0  0  0  0  0  0  0  0  0  0
  -42.9333   59.9023   67.9254 H   0  0  0  0  0  0  0  0  0  0  0  0
  -48.3881   58.2367   65.4605 C   0  0  0  0  0  0  0  0  0  0  0  0
  -47.9817   59.4653   64.6827 C   0  0  0  0  0  0  0  0  0  0  0  0
  -49.0153   60.3116   64.0658 C   0  0  0  0  0  0  0  0  0  0  0  0
  -50.4404   59.8191   64.0350 C   0  0  0  0  0  0  0  0  0  0  0  0
  -50.8662   59.4870   62.6091 C   0  0  0  0  0  0  0  0  0  0  0  0
  -50.1651   58.2166   62.1288 C   0  0  0  0  0  0  0  0  0  0  0  0
  -50.8697   57.6043   60.9191 C   0  0  0  0  0  0  0  0  0  0  0  0
  -50.2521   58.0757   59.6002 C   0  0  0  0  0  0  0  0  0  0  0  0
  -48.7277   57.9970   59.5960 C   0  0  0  0  0  0  0  0  0  0  0  0
  7  8  2  0  0  0
  7  6  1  0  0  0
  7  9  1  0  0  0
  6  5  1  0  0  0
  9 10  1  0  0  0
  5  4  1  0  0  0
  4  3  1  0  0  0
  3  2  1  0  0  0
  2  1  1  0  0  0
  1 11  1  0  0  0
 11 12  1  0  0  0
 12 13  2  0  0  0
 13 14  1  0  0  0
 14 15  1  0  0  0
 15 16  1  0  0  0
 16 17  1  0  0  0
 17 18  1  0  0  0
 18 19  1  0  0  0
M  END
> <minimizedAffinity>
-6.77496

> <CNNscore>
0.7383624315

> <CNNaffinity>
6.3268089294

> <CNN_VS>
4.6714777946

> <CNNaffinity_variance>
0.5702500343

$$$$
/media/chris/experiments/cd1a-new-docking/inputs/ligands/4x6d_2_ligand.pdb


 19 18  0  0  0  0  0  0  0  0999 V2000
  -50.8873   59.3700   62.4707 C   0  0  0  0  0  0  0  0  0  0  0  0
  -50.1900   58.1079   61.9820 C   0  0  0  0  0  0  0  0  0  0  0  0
  -50.8591   57.5113   60.7554 C   0  0  0  0  0  0  0  0  0  0  0  0
  -50.1776   58.0101   59.4917 C   0  0  0  0  0  0  0  0  0  0  0  0
  -48.6758   58.0212   59.7127 C   0  0  0  0  0  0  0  0  0  0  0  0
  -47.9132   58.0804   58.3986 C   0  0  0  0  0  0  0  0  0  0  0  0
  -48.1645   56.8109   57.6236 C   0  0  0  0  0  0  0  0  0  0  0  0
  -48.6686   56.8639   56.4848 O   0  0  0  0  0  0  0  0  0  0  0  0
  -47.8804   55.6927   58.1030 O   0  0  0  0  0  0  0  0  0  0  0  0
  -47.5008   55.6321   58.9576 H   0  0  0  0  0  0  0  0  0  0  0  0
  -50.1009   59.8836   63.6680 C   0  0  0  0  0  0  0  0  0  0  0  0
  -49.6436   58.7561   64.5621 C   0  0  0  0  0  0  0  0  0  0  0  0
  -48.8668   59.0577   65.7749 C   0  0  0  0  0  0  0  0  0  0  0  0
  -48.3557   60.4609   65.9852 C   0  0  0  0  0  0  0  0  0  0  0  0
  -46.9333   60.6026   65.4546 C   0  0  0  0  0  0  0  0  0  0  0  0
  -45.9668   59.7748   66.3013 C   0  0  0  0  0  0  0  0  0  0  0  0
  -44.5233   59.9272   65.8240 C   0  0  0  0  0  0  0  0  0  0  0  0
  -44.1482   58.8613   64.7914 C   0  0  0  0  0  0  0  0  0  0  0  0
  -44.8104   57.5128   65.0617 C   0  0  0  0  0  0  0  0  0  0  0  0
  7  8  2  0  0  0
  7  6  1  0  0  0
  7  9  1  0  0  0
  6  5  1  0  0  0
  9 10  1  0  0  0
  5  4  1  0  0  0
  4  3  1  0  0  0
  3  2  1  0  0  0
  2  1  1  0  0  0
  1 11  1  0  0  0
 11 12  1  0  0  0
 12 13  2  0  0  0
 13 14  1  0  0  0
 14 15  1  0  0  0
 15 16  1  0  0  0
 16 17  1  0  0  0
 17 18  1  0  0  0
 18 19  1  0  0  0
M  END
> <minimizedAffinity>
-7.27963

> <CNNscore>
0.7368130684

> <CNNaffinity>
6.4530067444

> <CNN_VS>
4.7546596527

> <CNNaffinity_variance>
0.5106168985

$$$$
/media/chris/experiments/cd1a-new-docking/inputs/ligands/4x6d_2_ligand.pdb


 19 18  0  0  0  0  0  0  0  0999 V2000
  -44.4163   57.4006   64.8885 C   0  0  0  0  0  0  0  0  0  0  0  0
  -43.2339   58.3239   65.1480 C   0  0  0  0  0  0  0  0  0  0  0  0
  -42.5485   58.0336   66.4724 C   0  0  0  0  0  0  0  0  0  0  0  0
  -41.6620   59.2019   66.8711 C   0  0  0  0  0  0  0  0  0  0  0  0
  -42.4311   60.4954   66.6715 C   0  0  0  0  0  0  0  0  0  0  0  0
  -41.5435   61.5993   66.1188 C   0  0  0  0  0  0  0  0  0  0  0  0
  -41.3946   61.4146   64.6291 C   0  0  0  0  0  0  0  0  0  0  0  0
  -40.3140   61.0135   64.1545 O   0  0  0  0  0  0  0  0  0  0  0  0
  -42.3384   61.6613   63.8486 O   0  0  0  0  0  0  0  0  0  0  0  0
  -43.1586   61.9638   64.1862 H   0  0  0  0  0  0  0  0  0  0  0  0
  -45.6660   58.2683   64.8551 C   0  0  0  0  0  0  0  0  0  0  0  0
  -46.7594   57.7081   65.7328 C   0  0  0  0  0  0  0  0  0  0  0  0
  -48.1621   57.8027   65.2983 C   0  0  0  0  0  0  0  0  0  0  0  0
  -48.4992   58.6480   64.0957 C   0  0  0  0  0  0  0  0  0  0  0  0
  -50.0019   58.8920   64.0113 C   0  0  0  0  0  0  0  0  0  0  0  0
  -50.4379   59.0141   62.5514 C   0  0  0  0  0  0  0  0  0  0  0  0
  -49.8918   57.8687   61.7002 C   0  0  0  0  0  0  0  0  0  0  0  0
  -49.9171   58.2051   60.2071 C   0  0  0  0  0  0  0  0  0  0  0  0
  -48.5584   58.0269   59.5346 C   0  0  0  0  0  0  0  0  0  0  0  0
  7  8  2  0  0  0
  7  6  1  0  0  0
  7  9  1  0  0  0
  6  5  1  0  0  0
  9 10  1  0  0  0
  5  4  1  0  0  0
  4  3  1  0  0  0
  3  2  1  0  0  0
  2  1  1  0  0  0
  1 11  1  0  0  0
 11 12  1  0  0  0
 12 13  2  0  0  0
 13 14  1  0  0  0
 14 15  1  0  0  0
 15 16  1  0  0  0
 16 17  1  0  0  0
 17 18  1  0  0  0
 18 19  1  0  0  0
M  END
> <minimizedAffinity>
-6.51817

> <CNNscore>
0.7346245646

> <CNNaffinity>
6.1611690521

> <CNN_VS>
4.5261459351

> <CNNaffinity_variance>
0.2351902276

$$$$
/media/chris/experiments/cd1a-new-docking/inputs/ligands/4x6d_2_ligand.pdb


 19 18  0  0  0  0  0  0  0  0999 V2000
  -49.6170   60.2881   64.9631 C   0  0  0  0  0  0  0  0  0  0  0  0
  -48.5645   61.3615   64.7221 C   0  0  0  0  0  0  0  0  0  0  0  0
  -47.1871   60.9458   65.2102 C   0  0  0  0  0  0  0  0  0  0  0  0
  -47.3131   60.0163   66.4061 C   0  0  0  0  0  0  0  0  0  0  0  0
  -45.9286   59.5442   66.8119 C   0  0  0  0  0  0  0  0  0  0  0  0
  -44.8700   59.9741   65.8088 C   0  0  0  0  0  0  0  0  0  0  0  0
  -43.5033   59.6805   66.3759 C   0  0  0  0  0  0  0  0  0  0  0  0
  -42.9568   60.4973   67.1426 O   0  0  0  0  0  0  0  0  0  0  0  0
  -42.8958   58.6273   66.0886 O   0  0  0  0  0  0  0  0  0  0  0  0
  -43.2901   58.0009   65.5139 H   0  0  0  0  0  0  0  0  0  0  0  0
  -50.1648   59.8817   63.6028 C   0  0  0  0  0  0  0  0  0  0  0  0
  -49.9253   58.4184   63.3179 C   0  0  0  0  0  0  0  0  0  0  0  0
  -49.7062   57.9725   61.9328 C   0  0  0  0  0  0  0  0  0  0  0  0
  -49.9423   58.9463   60.8057 C   0  0  0  0  0  0  0  0  0  0  0  0
  -49.1562   58.5371   59.5650 C   0  0  0  0  0  0  0  0  0  0  0  0
  -47.9480   57.6879   59.9592 C   0  0  0  0  0  0  0  0  0  0  0  0
  -47.1937   57.1738   58.7339 C   0  0  0  0  0  0  0  0  0  0  0  0
  -47.4871   58.0149   57.4890 C   0  0  0  0  0  0  0  0  0  0  0  0
  -47.6936   57.1689   56.2352 C   0  0  0  0  0  0  0  0  0  0  0  0
  7  8  2  0  0  0
  7  6  1  0  0  0
  7  9  1  0  0  0
  6  5  1  0  0  0
  9 10  1  0  0  0
  5  4  1  0  0  0
  4  3  1  0  0  0
  3  2  1  0  0  0
  2  1  1  0  0  0
  1 11  1  0  0  0
 11 12  1  0  0  0
 12 13  2  0  0  0
 13 14  1  0  0  0
 14 15  1  0  0  0
 15 16  1  0  0  0
 16 17  1  0  0  0
 17 18  1  0  0  0
 18 19  1  0  0  0
M  END
> <minimizedAffinity>
-6.93651

> <CNNscore>
0.6733387709

> <CNNaffinity>
6.2281131744

> <CNN_VS>
4.1936302185

> <CNNaffinity_variance>
0.2371300757

$$$$
/media/chris/experiments/cd1a-new-docking/inputs/ligands/4x6d_2_ligand.pdb


 19 18  0  0  0  0  0  0  0  0999 V2000
  -46.5842   60.5476   65.9250 C   0  0  0  0  0  0  0  0  0  0  0  0
  -45.3828   59.9214   65.2306 C   0  0  0  0  0  0  0  0  0  0  0  0
  -44.4603   59.2018   66.1999 C   0  0  0  0  0  0  0  0  0  0  0  0
  -43.6853   60.2099   67.0324 C   0  0  0  0  0  0  0  0  0  0  0  0
  -42.2043   60.0619   66.7336 C   0  0  0  0  0  0  0  0  0  0  0  0
  -41.6187   61.3345   66.1427 C   0  0  0  0  0  0  0  0  0  0  0  0
  -41.1450   61.0550   64.7381 C   0  0  0  0  0  0  0  0  0  0  0  0
  -39.9246   61.0078   64.4884 O   0  0  0  0  0  0  0  0  0  0  0  0
  -41.9562   60.8718   63.8057 O   0  0  0  0  0  0  0  0  0  0  0  0
  -42.8776   60.9034   63.9734 H   0  0  0  0  0  0  0  0  0  0  0  0
  -47.7846   60.3526   65.0102 C   0  0  0  0  0  0  0  0  0  0  0  0
  -48.4577   59.0219   65.2469 C   0  0  0  0  0  0  0  0  0  0  0  0
  -49.8001   58.7767   64.6962 C   0  0  0  0  0  0  0  0  0  0  0  0
  -50.5658   59.9294   64.0969 C   0  0  0  0  0  0  0  0  0  0  0  0
  -50.7160   59.7525   62.5899 C   0  0  0  0  0  0  0  0  0  0  0  0
  -50.4307   58.3036   62.1953 C   0  0  0  0  0  0  0  0  0  0  0  0
  -49.0881   58.1663   61.4788 C   0  0  0  0  0  0  0  0  0  0  0  0
  -49.2455   57.5549   60.0843 C   0  0  0  0  0  0  0  0  0  0  0  0
  -50.4761   58.0721   59.3440 C   0  0  0  0  0  0  0  0  0  0  0  0
  7  8  2  0  0  0
  7  6  1  0  0  0
  7  9  1  0  0  0
  6  5  1  0  0  0
  9 10  1  0  0  0
  5  4  1  0  0  0
  4  3  1  0  0  0
  3  2  1  0  0  0
  2  1  1  0  0  0
  1 11  1  0  0  0
 11 12  1  0  0  0
 12 13  2  0  0  0
 13 14  1  0  0  0
 14 15  1  0  0  0
 15 16  1  0  0  0
 16 17  1  0  0  0
 17 18  1  0  0  0
 18 19  1  0  0  0
M  END
> <minimizedAffinity>
-6.20845

> <CNNscore>
0.6697418690

> <CNNaffinity>
6.0078039169

> <CNN_VS>
4.0236778259

> <CNNaffinity_variance>
0.2684249580

$$$$
/media/chris/experiments/cd1a-new-docking/inputs/ligands/4x6d_2_ligand.pdb


 19 18  0  0  0  0  0  0  0  0999 V2000
  -44.5919   59.5460   65.4637 C   0  0  0  0  0  0  0  0  0  0  0  0
  -43.3906   60.4705   65.3222 C   0  0  0  0  0  0  0  0  0  0  0  0
  -42.3943   60.3079   66.4576 C   0  0  0  0  0  0  0  0  0  0  0  0
  -41.9415   58.8602   66.5545 C   0  0  0  0  0  0  0  0  0  0  0  0
  -41.2098   58.4857   65.2782 C   0  0  0  0  0  0  0  0  0  0  0  0
  -39.8827   59.2173   65.1540 C   0  0  0  0  0  0  0  0  0  0  0  0
  -39.4856   59.2776   63.7000 C   0  0  0  0  0  0  0  0  0  0  0  0
  -39.7155   60.3046   63.0320 O   0  0  0  0  0  0  0  0  0  0  0  0
  -38.9290   58.3093   63.1402 O   0  0  0  0  0  0  0  0  0  0  0  0
  -38.7478   57.5284   63.6256 H   0  0  0  0  0  0  0  0  0  0  0  0
  -45.8378   60.3885   65.2324 C   0  0  0  0  0  0  0  0  0  0  0  0
  -46.8778   60.1544   66.3016 C   0  0  0  0  0  0  0  0  0  0  0  0
  -48.2710   59.8809   65.9150 C   0  0  0  0  0  0  0  0  0  0  0  0
  -48.6771   60.0563   64.4732 C   0  0  0  0  0  0  0  0  0  0  0  0
  -49.3726   58.8036   63.9519 C   0  0  0  0  0  0  0  0  0  0  0  0
  -50.5851   59.1849   63.1030 C   0  0  0  0  0  0  0  0  0  0  0  0
  -50.1698   59.7589   61.7491 C   0  0  0  0  0  0  0  0  0  0  0  0
  -49.9253   58.6583   60.7136 C   0  0  0  0  0  0  0  0  0  0  0  0
  -50.9722   57.5488   60.7670 C   0  0  0  0  0  0  0  0  0  0  0  0
  7  8  2  0  0  0
  7  6  1  0  0  0
  7  9  1  0  0  0
  6  5  1  0  0  0
  9 10  1  0  0  0
  5  4  1  0  0  0
  4  3  1  0  0  0
  3  2  1  0  0  0
  2  1  1  0  0  0
  1 11  1  0  0  0
 11 12  1  0  0  0
 12 13  2  0  0  0
 13 14  1  0  0  0
 14 15  1  0  0  0
 15 16  1  0  0  0
 16 17  1  0  0  0
 17 18  1  0  0  0
 18 19  1  0  0  0
M  END
> <minimizedAffinity>
-6.26608

> <CNNscore>
0.6526780725

> <CNNaffinity>
6.0636572838

> <CNN_VS>
3.9576160908

> <CNNaffinity_variance>
0.3271283805

$$$$
