/media/chris/experiments/cd1a-new-docking/inputs/ligands/4x6d_2_ligand.pdb


 19 18  0  0  0  0  0  0  0  0999 V2000
  -46.8824   60.9073   65.2848 C   0  0  0  0  0  0  0  0  0  0  0  0
  -46.4321   59.4897   65.6094 C   0  0  0  0  0  0  0  0  0  0  0  0
  -45.2061   59.4596   66.5061 C   0  0  0  0  0  0  0  0  0  0  0  0
  -43.9836   59.9364   65.7390 C   0  0  0  0  0  0  0  0  0  0  0  0
  -42.7978   59.9910   66.6853 C   0  0  0  0  0  0  0  0  0  0  0  0
  -42.0746   61.3260   66.6061 C   0  0  0  0  0  0  0  0  0  0  0  0
  -40.7129   61.1151   65.9924 C   0  0  0  0  0  0  0  0  0  0  0  0
  -40.3592   59.9748   65.6340 O   0  0  0  0  0  0  0  0  0  0  0  0
  -39.9186   62.0668   65.8366 O   0  0  0  0  0  0  0  0  0  0  0  0
  -40.1661   62.9314   66.0998 H   0  0  0  0  0  0  0  0  0  0  0  0
  -48.3547   61.0078   65.6563 C   0  0  0  0  0  0  0  0  0  0  0  0
  -48.9631   59.6483   65.9037 C   0  0  0  0  0  0  0  0  0  0  0  0
  -50.1343   59.2214   65.1218 C   0  0  0  0  0  0  0  0  0  0  0  0
  -50.8363   60.2299   64.2475 C   0  0  0  0  0  0  0  0  0  0  0  0
  -50.7075   59.8513   62.7761 C   0  0  0  0  0  0  0  0  0  0  0  0
  -50.1370   58.4397   62.6401 C   0  0  0  0  0  0  0  0  0  0  0  0
  -50.6478   57.7421   61.3803 C   0  0  0  0  0  0  0  0  0  0  0  0
  -50.0716   58.3685   60.1079 C   0  0  0  0  0  0  0  0  0  0  0  0
  -48.6013   58.0222   59.8881 C   0  0  0  0  0  0  0  0  0  0  0  0
  7  8  2  0  0  0
  7  6  1  0  0  0
  7  9  1  0  0  0
  6  5  1  0  0  0
  9 10  1  0  0  0
  5  4  1  0  0  0
  4  3  1  0  0  0
  3  2  1  0  0  0
  2  1  1  0  0  0
  1 11  1  0  0  0
 11 12  1  0  0  0
 12 13  2  0  0  0
 13 14  1  0  0  0
 14 15  1  0  0  0
 15 16  1  0  0  0
 16 17  1  0  0  0
 17 18  1  0  0  0
 18 19  1  0  0  0
M  END
> <minimizedAffinity>
-6.87193

> <CNNscore>
0.7528676391

> <CNNaffinity>
6.1320834160

> <CNN_VS>
4.6166472435

> <CNNaffinity_variance>
0.4291923046

$$$$
/media/chris/experiments/cd1a-new-docking/inputs/ligands/4x6d_2_ligand.pdb


 19 18  0  0  0  0  0  0  0  0999 V2000
  -46.0911   58.4596   64.8824 C   0  0  0  0  0  0  0  0  0  0  0  0
  -44.8351   57.7311   65.3399 C   0  0  0  0  0  0  0  0  0  0  0  0
  -43.5644   58.4887   64.9941 C   0  0  0  0  0  0  0  0  0  0  0  0
  -42.4926   58.2184   66.0373 C   0  0  0  0  0  0  0  0  0  0  0  0
  -42.2318   59.4937   66.8185 C   0  0  0  0  0  0  0  0  0  0  0  0
  -42.2756   60.7218   65.9233 C   0  0  0  0  0  0  0  0  0  0  0  0
  -40.9004   61.3386   65.8625 C   0  0  0  0  0  0  0  0  0  0  0  0
  -39.8990   60.6163   65.6917 O   0  0  0  0  0  0  0  0  0  0  0  0
  -40.7378   62.5712   65.9853 O   0  0  0  0  0  0  0  0  0  0  0  0
  -41.4781   63.1308   66.1145 H   0  0  0  0  0  0  0  0  0  0  0  0
  -46.3537   59.5753   65.8834 C   0  0  0  0  0  0  0  0  0  0  0  0
  -46.8537   60.8285   65.2056 C   0  0  0  0  0  0  0  0  0  0  0  0
  -48.2635   61.2235   65.3536 C   0  0  0  0  0  0  0  0  0  0  0  0
  -49.2295   60.2582   65.9934 C   0  0  0  0  0  0  0  0  0  0  0  0
  -50.3441   59.8862   65.0218 C   0  0  0  0  0  0  0  0  0  0  0  0
  -49.8868   58.7579   64.0975 C   0  0  0  0  0  0  0  0  0  0  0  0
  -50.0180   59.1445   62.6251 C   0  0  0  0  0  0  0  0  0  0  0  0
  -50.3478   57.9360   61.7452 C   0  0  0  0  0  0  0  0  0  0  0  0
  -50.1696   58.2190   60.2558 C   0  0  0  0  0  0  0  0  0  0  0  0
  7  8  2  0  0  0
  7  6  1  0  0  0
  7  9  1  0  0  0
  6  5  1  0  0  0
  9 10  1  0  0  0
  5  4  1  0  0  0
  4  3  1  0  0  0
  3  2  1  0  0  0
  2  1  1  0  0  0
  1 11  1  0  0  0
 11 12  1  0  0  0
 12 13  2  0  0  0
 13 14  1  0  0  0
 14 15  1  0  0  0
 15 16  1  0  0  0
 16 17  1  0  0  0
 17 18  1  0  0  0
 18 19  1  0  0  0
M  END
> <minimizedAffinity>
-6.62246

> <CNNscore>
0.7200937271

> <CNNaffinity>
6.0803632736

> <CNN_VS>
4.3784313202

> <CNNaffinity_variance>
0.3708089590

$$$$
/media/chris/experiments/cd1a-new-docking/inputs/ligands/4x6d_2_ligand.pdb


 19 18  0  0  0  0  0  0  0  0999 V2000
  -47.8401   58.7630   65.8799 C   0  0  0  0  0  0  0  0  0  0  0  0
  -47.1098   57.4377   65.7124 C   0  0  0  0  0  0  0  0  0  0  0  0
  -45.6880   57.4854   66.2455 C   0  0  0  0  0  0  0  0  0  0  0  0
  -44.6978   57.2276   65.1215 C   0  0  0  0  0  0  0  0  0  0  0  0
  -43.6614   58.3368   65.1132 C   0  0  0  0  0  0  0  0  0  0  0  0
  -42.5406   58.0683   66.1049 C   0  0  0  0  0  0  0  0  0  0  0  0
  -41.9335   59.3815   66.5322 C   0  0  0  0  0  0  0  0  0  0  0  0
  -42.5885   60.1717   67.2393 O   0  0  0  0  0  0  0  0  0  0  0  0
  -40.7766   59.7026   66.1864 O   0  0  0  0  0  0  0  0  0  0  0  0
  -40.2684   59.1221   65.6549 H   0  0  0  0  0  0  0  0  0  0  0  0
  -49.3161   58.4992   65.6201 C   0  0  0  0  0  0  0  0  0  0  0  0
  -50.1454   59.7501   65.7857 C   0  0  0  0  0  0  0  0  0  0  0  0
  -50.5608   60.5111   64.5968 C   0  0  0  0  0  0  0  0  0  0  0  0
  -49.9693   60.1532   63.2565 C   0  0  0  0  0  0  0  0  0  0  0  0
  -50.9015   59.2252   62.4854 C   0  0  0  0  0  0  0  0  0  0  0  0
  -50.0997   58.1202   61.7980 C   0  0  0  0  0  0  0  0  0  0  0  0
  -50.8508   57.5366   60.6022 C   0  0  0  0  0  0  0  0  0  0  0  0
  -50.1924   57.9176   59.2737 C   0  0  0  0  0  0  0  0  0  0  0  0
  -48.6947   58.1808   59.4066 C   0  0  0  0  0  0  0  0  0  0  0  0
  7  8  2  0  0  0
  7  6  1  0  0  0
  7  9  1  0  0  0
  6  5  1  0  0  0
  9 10  1  0  0  0
  5  4  1  0  0  0
  4  3  1  0  0  0
  3  2  1  0  0  0
  2  1  1  0  0  0
  1 11  1  0  0  0
 11 12  1  0  0  0
 12 13  2  0  0  0
 13 14  1  0  0  0
 14 15  1  0  0  0
 15 16  1  0  0  0
 16 17  1  0  0  0
 17 18  1  0  0  0
 18 19  1  0  0  0
M  END
> <minimizedAffinity>
-6.93115

> <CNNscore>
0.6737409830

> <CNNaffinity>
6.2159357071

> <CNN_VS>
4.1879305840

> <CNNaffinity_variance>
0.3385614753

$$$$
/media/chris/experiments/cd1a-new-docking/inputs/ligands/4x6d_2_ligand.pdb


 19 18  0  0  0  0  0  0  0  0999 V2000
  -48.6084   61.3207   64.5021 C   0  0  0  0  0  0  0  0  0  0  0  0
  -47.2904   61.1061   65.2333 C   0  0  0  0  0  0  0  0  0  0  0  0
  -47.0623   59.6512   65.6066 C   0  0  0  0  0  0  0  0  0  0  0  0
  -45.8426   59.5254   66.5047 C   0  0  0  0  0  0  0  0  0  0  0  0
  -44.6465   59.1262   65.6594 C   0  0  0  0  0  0  0  0  0  0  0  0
  -43.6081   60.2348   65.5932 C   0  0  0  0  0  0  0  0  0  0  0  0
  -42.6700   60.1042   66.7672 C   0  0  0  0  0  0  0  0  0  0  0  0
  -41.9715   59.0801   66.8976 O   0  0  0  0  0  0  0  0  0  0  0  0
  -42.5780   61.0072   67.6258 O   0  0  0  0  0  0  0  0  0  0  0  0
  -43.0948   61.7845   67.5453 H   0  0  0  0  0  0  0  0  0  0  0  0
  -49.4568   60.0781   64.7301 C   0  0  0  0  0  0  0  0  0  0  0  0
  -50.7995   60.1848   64.0479 C   0  0  0  0  0  0  0  0  0  0  0  0
  -51.0012   59.5530   62.7344 C   0  0  0  0  0  0  0  0  0  0  0  0
  -49.8065   59.0018   61.9974 C   0  0  0  0  0  0  0  0  0  0  0  0
  -50.1126   57.6203   61.4295 C   0  0  0  0  0  0  0  0  0  0  0  0
  -50.4086   57.7163   59.9330 C   0  0  0  0  0  0  0  0  0  0  0  0
  -49.1990   58.2221   59.1483 C   0  0  0  0  0  0  0  0  0  0  0  0
  -47.9233   57.4578   59.5113 C   0  0  0  0  0  0  0  0  0  0  0  0
  -46.6986   57.9464   58.7423 C   0  0  0  0  0  0  0  0  0  0  0  0
  7  8  2  0  0  0
  7  6  1  0  0  0
  7  9  1  0  0  0
  6  5  1  0  0  0
  9 10  1  0  0  0
  5  4  1  0  0  0
  4  3  1  0  0  0
  3  2  1  0  0  0
  2  1  1  0  0  0
  1 11  1  0  0  0
 11 12  1  0  0  0
 12 13  2  0  0  0
 13 14  1  0  0  0
 14 15  1  0  0  0
 15 16  1  0  0  0
 16 17  1  0  0  0
 17 18  1  0  0  0
 18 19  1  0  0  0
M  END
> <minimizedAffinity>
-7.06814

> <CNNscore>
0.6719334126

> <CNNaffinity>
6.2266983986

> <CNN_VS>
4.1839265823

> <CNNaffinity_variance>
0.3358000219

$$$$
/media/chris/experiments/cd1a-new-docking/inputs/ligands/4x6d_2_ligand.pdb


 19 18  0  0  0  0  0  0  0  0999 V2000
  -41.9319   60.0441   64.7853 C   0  0  0  0  0  0  0  0  0  0  0  0
  -40.7821   59.2538   65.3944 C   0  0  0  0  0  0  0  0  0  0  0  0
  -39.4817   59.4360   64.6304 C   0  0  0  0  0  0  0  0  0  0  0  0
  -39.1402   58.1672   63.8665 C   0  0  0  0  0  0  0  0  0  0  0  0
  -38.4503   58.5439   62.5678 C   0  0  0  0  0  0  0  0  0  0  0  0
  -38.6356   60.0164   62.2377 C   0  0  0  0  0  0  0  0  0  0  0  0
  -38.7703   60.1750   60.7436 C   0  0  0  0  0  0  0  0  0  0  0  0
  -39.6195   60.9564   60.2726 O   0  0  0  0  0  0  0  0  0  0  0  0
  -38.0453   59.5305   59.9563 O   0  0  0  0  0  0  0  0  0  0  0  0
  -37.4011   58.9381   60.2910 H   0  0  0  0  0  0  0  0  0  0  0  0
  -43.2212   59.4844   65.3686 C   0  0  0  0  0  0  0  0  0  0  0  0
  -43.2461   57.9754   65.3246 C   0  0  0  0  0  0  0  0  0  0  0  0
  -44.4701   57.2794   64.8973 C   0  0  0  0  0  0  0  0  0  0  0  0
  -45.7398   58.0743   64.7233 C   0  0  0  0  0  0  0  0  0  0  0  0
  -46.6944   57.8284   65.8866 C   0  0  0  0  0  0  0  0  0  0  0  0
  -48.1385   57.7860   65.3872 C   0  0  0  0  0  0  0  0  0  0  0  0
  -48.3966   58.8410   64.3124 C   0  0  0  0  0  0  0  0  0  0  0  0
  -49.4055   58.3565   63.2681 C   0  0  0  0  0  0  0  0  0  0  0  0
  -50.4196   59.4290   62.8790 C   0  0  0  0  0  0  0  0  0  0  0  0
  7  8  2  0  0  0
  7  6  1  0  0  0
  7  9  1  0  0  0
  6  5  1  0  0  0
  9 10  1  0  0  0
  5  4  1  0  0  0
  4  3  1  0  0  0
  3  2  1  0  0  0
  2  1  1  0  0  0
  1 11  1  0  0  0
 11 12  1  0  0  0
 12 13  2  0  0  0
 13 14  1  0  0  0
 14 15  1  0  0  0
 15 16  1  0  0  0
 16 17  1  0  0  0
 17 18  1  0  0  0
 18 19  1  0  0  0
M  END
> <minimizedAffinity>
-6.45555

> <CNNscore>
0.6684143543

> <CNNaffinity>
6.1643257141

> <CNN_VS>
4.1203236580

> <CNNaffinity_variance>
0.3357494473

$$$$
/media/chris/experiments/cd1a-new-docking/inputs/ligands/4x6d_2_ligand.pdb


 19 18  0  0  0  0  0  0  0  0999 V2000
  -41.5570   59.1690   66.4801 C   0  0  0  0  0  0  0  0  0  0  0  0
  -40.4862   59.6498   65.5106 C   0  0  0  0  0  0  0  0  0  0  0  0
  -39.7740   58.5025   64.8145 C   0  0  0  0  0  0  0  0  0  0  0  0
  -39.2464   58.9557   63.4631 C   0  0  0  0  0  0  0  0  0  0  0  0
  -38.3110   57.8921   62.9168 C   0  0  0  0  0  0  0  0  0  0  0  0
  -36.9875   57.8675   63.6648 C   0  0  0  0  0  0  0  0  0  0  0  0
  -35.9029   58.4116   62.7687 C   0  0  0  0  0  0  0  0  0  0  0  0
  -35.8781   59.6248   62.4840 O   0  0  0  0  0  0  0  0  0  0  0  0
  -35.0199   57.6654   62.2948 O   0  0  0  0  0  0  0  0  0  0  0  0
  -35.0217   56.7505   62.4971 H   0  0  0  0  0  0  0  0  0  0  0  0
  -42.6465   58.5026   65.6526 C   0  0  0  0  0  0  0  0  0  0  0  0
  -43.4018   59.5040   64.8121 C   0  0  0  0  0  0  0  0  0  0  0  0
  -44.5943   60.1660   65.3644 C   0  0  0  0  0  0  0  0  0  0  0  0
  -45.1652   59.6726   66.6702 C   0  0  0  0  0  0  0  0  0  0  0  0
  -46.3093   58.6952   66.4243 C   0  0  0  0  0  0  0  0  0  0  0  0
  -47.3153   59.2935   65.4411 C   0  0  0  0  0  0  0  0  0  0  0  0
  -48.3576   60.1550   66.1524 C   0  0  0  0  0  0  0  0  0  0  0  0
  -49.2812   60.8677   65.1613 C   0  0  0  0  0  0  0  0  0  0  0  0
  -50.7577   60.5626   65.3997 C   0  0  0  0  0  0  0  0  0  0  0  0
  7  8  2  0  0  0
  7  6  1  0  0  0
  7  9  1  0  0  0
  6  5  1  0  0  0
  9 10  1  0  0  0
  5  4  1  0  0  0
  4  3  1  0  0  0
  3  2  1  0  0  0
  2  1  1  0  0  0
  1 11  1  0  0  0
 11 12  1  0  0  0
 12 13  2  0  0  0
 13 14  1  0  0  0
 14 15  1  0  0  0
 15 16  1  0  0  0
 16 17  1  0  0  0
 17 18  1  0  0  0
 18 19  1  0  0  0
M  END
> <minimizedAffinity>
-6.02710

> <CNNscore>
0.6337855458

> <CNNaffinity>
5.8962278366

> <CNN_VS>
3.7369439602

> <CNNaffinity_variance>
0.1337733716

$$$$
/media/chris/experiments/cd1a-new-docking/inputs/ligands/4x6d_2_ligand.pdb


 19 18  0  0  0  0  0  0  0  0999 V2000
  -44.5204   58.4518   64.7779 C   0  0  0  0  0  0  0  0  0  0  0  0
  -43.7136   59.6241   65.3188 C   0  0  0  0  0  0  0  0  0  0  0  0
  -42.4055   59.8238   64.5725 C   0  0  0  0  0  0  0  0  0  0  0  0
  -41.3433   58.8818   65.1151 C   0  0  0  0  0  0  0  0  0  0  0  0
  -39.9809   59.3418   64.6285 C   0  0  0  0  0  0  0  0  0  0  0  0
  -39.0764   58.1669   64.2921 C   0  0  0  0  0  0  0  0  0  0  0  0
  -37.7290   58.3800   64.9359 C   0  0  0  0  0  0  0  0  0  0  0  0
  -37.3680   59.5270   65.2641 O   0  0  0  0  0  0  0  0  0  0  0  0
  -36.9539   57.4231   65.1470 O   0  0  0  0  0  0  0  0  0  0  0  0
  -37.2071   56.5534   64.9073 H   0  0  0  0  0  0  0  0  0  0  0  0
  -45.9908   58.7825   64.9883 C   0  0  0  0  0  0  0  0  0  0  0  0
  -46.1700   60.0431   65.7999 C   0  0  0  0  0  0  0  0  0  0  0  0
  -47.3937   60.8445   65.6398 C   0  0  0  0  0  0  0  0  0  0  0  0
  -48.3420   60.5136   64.5148 C   0  0  0  0  0  0  0  0  0  0  0  0
  -49.6428   59.9329   65.0583 C   0  0  0  0  0  0  0  0  0  0  0  0
  -49.9436   58.5909   64.3913 C   0  0  0  0  0  0  0  0  0  0  0  0
  -49.4896   58.5699   62.9325 C   0  0  0  0  0  0  0  0  0  0  0  0
  -50.6597   58.7789   61.9678 C   0  0  0  0  0  0  0  0  0  0  0  0
  -50.8762   57.5937   61.0305 C   0  0  0  0  0  0  0  0  0  0  0  0
  7  8  2  0  0  0
  7  6  1  0  0  0
  7  9  1  0  0  0
  6  5  1  0  0  0
  9 10  1  0  0  0
  5  4  1  0  0  0
  4  3  1  0  0  0
  3  2  1  0  0  0
  2  1  1  0  0  0
  1 11  1  0  0  0
 11 12  1  0  0  0
 12 13  2  0  0  0
 13 14  1  0  0  0
 14 15  1  0  0  0
 15 16  1  0  0  0
 16 17  1  0  0  0
 17 18  1  0  0  0
 18 19  1  0  0  0
M  END
> <minimizedAffinity>
-6.30810

> <CNNscore>
0.6302692890

> <CNNaffinity>
6.1286873817

> <CNN_VS>
3.8627233505

> <CNNaffinity_variance>
0.2853748500

$$$$
/media/chris/experiments/cd1a-new-docking/inputs/ligands/4x6d_2_ligand.pdb


 19 18  0  0  0  0  0  0  0  0999 V2000
  -47.8186   59.9922   65.2191 C   0  0  0  0  0  0  0  0  0  0  0  0
  -48.7125   58.7598   65.2183 C   0  0  0  0  0  0  0  0  0  0  0  0
  -49.1562   58.3638   63.8203 C   0  0  0  0  0  0  0  0  0  0  0  0
  -50.0555   59.4384   63.2316 C   0  0  0  0  0  0  0  0  0  0  0  0
  -50.1522   59.2330   61.7306 C   0  0  0  0  0  0  0  0  0  0  0  0
  -50.8473   57.9259   61.3843 C   0  0  0  0  0  0  0  0  0  0  0  0
  -50.2854   57.3951   60.0889 C   0  0  0  0  0  0  0  0  0  0  0  0
  -49.6315   56.3339   60.0801 O   0  0  0  0  0  0  0  0  0  0  0  0
  -50.4576   58.0033   59.0112 O   0  0  0  0  0  0  0  0  0  0  0  0
  -50.9463   58.8026   58.9974 H   0  0  0  0  0  0  0  0  0  0  0  0
  -46.5451   59.6236   65.9663 C   0  0  0  0  0  0  0  0  0  0  0  0
  -45.6722   58.6934   65.1586 C   0  0  0  0  0  0  0  0  0  0  0  0
  -44.2384   58.9881   65.0075 C   0  0  0  0  0  0  0  0  0  0  0  0
  -43.7135   60.3225   65.4745 C   0  0  0  0  0  0  0  0  0  0  0  0
  -42.8576   60.1581   66.7257 C   0  0  0  0  0  0  0  0  0  0  0  0
  -41.8173   59.0581   66.5153 C   0  0  0  0  0  0  0  0  0  0  0  0
  -40.6426   59.5451   65.6681 C   0  0  0  0  0  0  0  0  0  0  0  0
  -40.0495   58.4207   64.8152 C   0  0  0  0  0  0  0  0  0  0  0  0
  -39.1269   58.9343   63.7129 C   0  0  0  0  0  0  0  0  0  0  0  0
  7  8  2  0  0  0
  7  6  1  0  0  0
  7  9  1  0  0  0
  6  5  1  0  0  0
  9 10  1  0  0  0
  5  4  1  0  0  0
  4  3  1  0  0  0
  3  2  1  0  0  0
  2  1  1  0  0  0
  1 11  1  0  0  0
 11 12  1  0  0  0
 12 13  2  0  0  0
 13 14  1  0  0  0
 14 15  1  0  0  0
 15 16  1  0  0  0
 16 17  1  0  0  0
 17 18  1  0  0  0
 18 19  1  0  0  0
M  END
> <minimizedAffinity>
-6.45335

> <CNNscore>
0.6233303547

> <CNNaffinity>
6.0895853043

> <CNN_VS>
3.7958233356

> <CNNaffinity_variance>
0.4971769452

$$$$
/media/chris/experiments/cd1a-new-docking/inputs/ligands/4x6d_2_ligand.pdb


 19 18  0  0  0  0  0  0  0  0999 V2000
  -43.4371   60.5209   64.8223 C   0  0  0  0  0  0  0  0  0  0  0  0
  -42.0469   60.1733   64.3083 C   0  0  0  0  0  0  0  0  0  0  0  0
  -41.4209   59.0128   65.0629 C   0  0  0  0  0  0  0  0  0  0  0  0
  -39.9089   59.1637   65.0964 C   0  0  0  0  0  0  0  0  0  0  0  0
  -39.2820   58.0239   64.3138 C   0  0  0  0  0  0  0  0  0  0  0  0
  -38.6996   58.5007   62.9927 C   0  0  0  0  0  0  0  0  0  0  0  0
  -37.4632   57.6958   62.6783 C   0  0  0  0  0  0  0  0  0  0  0  0
  -36.5294   57.6380   63.5019 O   0  0  0  0  0  0  0  0  0  0  0  0
  -37.3487   57.0813   61.5965 O   0  0  0  0  0  0  0  0  0  0  0  0
  -38.0397   57.1126   60.9645 H   0  0  0  0  0  0  0  0  0  0  0  0
  -44.0082   59.2631   65.4607 C   0  0  0  0  0  0  0  0  0  0  0  0
  -45.0645   59.5882   66.4894 C   0  0  0  0  0  0  0  0  0  0  0  0
  -46.0879   58.5853   66.8244 C   0  0  0  0  0  0  0  0  0  0  0  0
  -46.1949   57.3404   65.9799 C   0  0  0  0  0  0  0  0  0  0  0  0
  -47.6553   56.9958   65.7089 C   0  0  0  0  0  0  0  0  0  0  0  0
  -48.4644   58.2700   65.4675 C   0  0  0  0  0  0  0  0  0  0  0  0
  -48.8905   58.4012   64.0060 C   0  0  0  0  0  0  0  0  0  0  0  0
  -49.9968   59.4437   63.8256 C   0  0  0  0  0  0  0  0  0  0  0  0
  -50.7644   59.2754   62.5170 C   0  0  0  0  0  0  0  0  0  0  0  0
  7  8  2  0  0  0
  7  6  1  0  0  0
  7  9  1  0  0  0
  6  5  1  0  0  0
  9 10  1  0  0  0
  5  4  1  0  0  0
  4  3  1  0  0  0
  3  2  1  0  0  0
  2  1  1  0  0  0
  1 11  1  0  0  0
 11 12  1  0  0  0
 12 13  2  0  0  0
 13 14  1  0  0  0
 14 15  1  0  0  0
 15 16  1  0  0  0
 16 17  1  0  0  0
 17 18  1  0  0  0
 18 19  1  0  0  0
M  END
> <minimizedAffinity>
-6.22564

> <CNNscore>
0.6173490882

> <CNNaffinity>
6.1370687485

> <CNN_VS>
3.7887136936

> <CNNaffinity_variance>
0.4500087798

$$$$
