/media/chris/experiments/cd1a-new-docking/inputs/ligands/4x6d_2_ligand.pdb


 19 18  0  0  0  0  0  0  0  0999 V2000
  -46.3441   60.7071   65.2553 C   0  0  0  0  0  0  0  0  0  0  0  0
  -45.3566   59.5506   65.3270 C   0  0  0  0  0  0  0  0  0  0  0  0
  -44.4393   59.6428   66.5345 C   0  0  0  0  0  0  0  0  0  0  0  0
  -43.1380   58.9063   66.2619 C   0  0  0  0  0  0  0  0  0  0  0  0
  -42.0010   59.6441   66.9455 C   0  0  0  0  0  0  0  0  0  0  0  0
  -42.1719   61.1521   66.8533 C   0  0  0  0  0  0  0  0  0  0  0  0
  -41.3371   61.6754   65.7109 C   0  0  0  0  0  0  0  0  0  0  0  0
  -41.8051   61.7011   64.5560 O   0  0  0  0  0  0  0  0  0  0  0  0
  -40.1713   62.0848   65.8957 O   0  0  0  0  0  0  0  0  0  0  0  0
  -39.8016   62.0734   66.7566 H   0  0  0  0  0  0  0  0  0  0  0  0
  -47.6261   60.2466   65.9335 C   0  0  0  0  0  0  0  0  0  0  0  0
  -47.9643   58.8183   65.5793 C   0  0  0  0  0  0  0  0  0  0  0  0
  -49.1755   58.5297   64.7951 C   0  0  0  0  0  0  0  0  0  0  0  0
  -50.1681   59.6381   64.5490 C   0  0  0  0  0  0  0  0  0  0  0  0
  -50.7270   59.5577   63.1327 C   0  0  0  0  0  0  0  0  0  0  0  0
  -49.9819   58.4927   62.3285 C   0  0  0  0  0  0  0  0  0  0  0  0
  -50.8367   57.9452   61.1865 C   0  0  0  0  0  0  0  0  0  0  0  0
  -50.0010   57.1547   60.1764 C   0  0  0  0  0  0  0  0  0  0  0  0
  -48.9095   57.9963   59.5203 C   0  0  0  0  0  0  0  0  0  0  0  0
  7  8  2  0  0  0
  7  6  1  0  0  0
  7  9  1  0  0  0
  6  5  1  0  0  0
  9 10  1  0  0  0
  5  4  1  0  0  0
  4  3  1  0  0  0
  3  2  1  0  0  0
  2  1  1  0  0  0
  1 11  1  0  0  0
 11 12  1  0  0  0
 12 13  2  0  0  0
 13 14  1  0  0  0
 14 15  1  0  0  0
 15 16  1  0  0  0
 16 17  1  0  0  0
 17 18  1  0  0  0
 18 19  1  0  0  0
M  END
> <minimizedAffinity>
-6.76940

> <CNNscore>
0.8367125392

> <CNNaffinity>
6.3664984703

> <CNN_VS>
5.3269290924

> <CNNaffinity_variance>
0.5382881761

$$$$
/media/chris/experiments/cd1a-new-docking/inputs/ligands/4x6d_2_ligand.pdb


 19 18  0  0  0  0  0  0  0  0999 V2000
  -47.8747   60.8997   65.7082 C   0  0  0  0  0  0  0  0  0  0  0  0
  -46.7523   60.0319   65.1561 C   0  0  0  0  0  0  0  0  0  0  0  0
  -45.6394   59.8081   66.1657 C   0  0  0  0  0  0  0  0  0  0  0  0
  -44.3079   60.2573   65.5866 C   0  0  0  0  0  0  0  0  0  0  0  0
  -43.1864   59.7400   66.4693 C   0  0  0  0  0  0  0  0  0  0  0  0
  -42.3727   60.8753   67.0699 C   0  0  0  0  0  0  0  0  0  0  0  0
  -41.2956   61.2814   66.0948 C   0  0  0  0  0  0  0  0  0  0  0  0
  -40.6429   60.4107   65.4871 O   0  0  0  0  0  0  0  0  0  0  0  0
  -41.0355   62.4847   65.8821 O   0  0  0  0  0  0  0  0  0  0  0  0
  -41.5152   63.1539   66.3293 H   0  0  0  0  0  0  0  0  0  0  0  0
  -48.8400   61.1690   64.5631 C   0  0  0  0  0  0  0  0  0  0  0  0
  -50.2555   60.7859   64.9229 C   0  0  0  0  0  0  0  0  0  0  0  0
  -51.0651   60.0112   63.9692 C   0  0  0  0  0  0  0  0  0  0  0  0
  -50.5454   59.8042   62.5687 C   0  0  0  0  0  0  0  0  0  0  0  0
  -50.1523   58.3476   62.3484 C   0  0  0  0  0  0  0  0  0  0  0  0
  -50.8688   57.7850   61.1211 C   0  0  0  0  0  0  0  0  0  0  0  0
  -49.8855   57.1827   60.1187 C   0  0  0  0  0  0  0  0  0  0  0  0
  -48.9566   58.2435   59.5226 C   0  0  0  0  0  0  0  0  0  0  0  0
  -47.5645   57.7036   59.2054 C   0  0  0  0  0  0  0  0  0  0  0  0
  7  8  2  0  0  0
  7  6  1  0  0  0
  7  9  1  0  0  0
  6  5  1  0  0  0
  9 10  1  0  0  0
  5  4  1  0  0  0
  4  3  1  0  0  0
  3  2  1  0  0  0
  2  1  1  0  0  0
  1 11  1  0  0  0
 11 12  1  0  0  0
 12 13  2  0  0  0
 13 14  1  0  0  0
 14 15  1  0  0  0
 15 16  1  0  0  0
 16 17  1  0  0  0
 17 18  1  0  0  0
 18 19  1  0  0  0
M  END
> <minimizedAffinity>
-7.09613

> <CNNscore>
0.8045057058

> <CNNaffinity>
6.1403036118

> <CNN_VS>
4.9399094582

> <CNNaffinity_variance>
0.3266654313

$$$$
/media/chris/experiments/cd1a-new-docking/inputs/ligands/4x6d_2_ligand.pdb


 19 18  0  0  0  0  0  0  0  0999 V2000
  -42.5357   57.8640   65.7916 C   0  0  0  0  0  0  0  0  0  0  0  0
  -41.7295   59.0115   66.3842 C   0  0  0  0  0  0  0  0  0  0  0  0
  -40.9215   59.7573   65.3359 C   0  0  0  0  0  0  0  0  0  0  0  0
  -39.7915   58.8800   64.8228 C   0  0  0  0  0  0  0  0  0  0  0  0
  -38.4683   59.4496   65.3018 C   0  0  0  0  0  0  0  0  0  0  0  0
  -38.5761   60.9319   65.6225 C   0  0  0  0  0  0  0  0  0  0  0  0
  -37.2017   61.5512   65.5658 C   0  0  0  0  0  0  0  0  0  0  0  0
  -37.0609   62.7766   65.7457 O   0  0  0  0  0  0  0  0  0  0  0  0
  -36.1883   60.8577   65.3357 O   0  0  0  0  0  0  0  0  0  0  0  0
  -36.2736   59.9348   65.1978 H   0  0  0  0  0  0  0  0  0  0  0  0
  -43.8478   58.4485   65.2891 C   0  0  0  0  0  0  0  0  0  0  0  0
  -44.3654   59.5308   66.2058 C   0  0  0  0  0  0  0  0  0  0  0  0
  -45.7203   59.4215   66.7693 C   0  0  0  0  0  0  0  0  0  0  0  0
  -46.6435   58.3482   66.2495 C   0  0  0  0  0  0  0  0  0  0  0  0
  -47.5266   58.8908   65.1313 C   0  0  0  0  0  0  0  0  0  0  0  0
  -48.8495   58.1266   65.0825 C   0  0  0  0  0  0  0  0  0  0  0  0
  -49.8425   58.7757   64.1196 C   0  0  0  0  0  0  0  0  0  0  0  0
  -49.3772   58.6730   62.6649 C   0  0  0  0  0  0  0  0  0  0  0  0
  -50.3790   57.9476   61.7703 C   0  0  0  0  0  0  0  0  0  0  0  0
  7  8  2  0  0  0
  7  6  1  0  0  0
  7  9  1  0  0  0
  6  5  1  0  0  0
  9 10  1  0  0  0
  5  4  1  0  0  0
  4  3  1  0  0  0
  3  2  1  0  0  0
  2  1  1  0  0  0
  1 11  1  0  0  0
 11 12  1  0  0  0
 12 13  2  0  0  0
 13 14  1  0  0  0
 14 15  1  0  0  0
 15 16  1  0  0  0
 16 17  1  0  0  0
 17 18  1  0  0  0
 18 19  1  0  0  0
M  END
> <minimizedAffinity>
-6.09236

> <CNNscore>
0.7789594531

> <CNNaffinity>
6.3004703522

> <CNN_VS>
4.9078111649

> <CNNaffinity_variance>
0.4309493899

$$$$
/media/chris/experiments/cd1a-new-docking/inputs/ligands/4x6d_2_ligand.pdb


 19 18  0  0  0  0  0  0  0  0999 V2000
  -43.8862   58.6524   65.8071 C   0  0  0  0  0  0  0  0  0  0  0  0
  -42.8228   59.1114   64.8191 C   0  0  0  0  0  0  0  0  0  0  0  0
  -42.9758   60.5739   64.4372 C   0  0  0  0  0  0  0  0  0  0  0  0
  -41.6113   61.1983   64.1958 C   0  0  0  0  0  0  0  0  0  0  0  0
  -41.2323   61.0074   62.7383 C   0  0  0  0  0  0  0  0  0  0  0  0
  -39.8013   60.5161   62.5879 C   0  0  0  0  0  0  0  0  0  0  0  0
  -39.2437   61.0114   61.2766 C   0  0  0  0  0  0  0  0  0  0  0  0
  -39.9869   61.1152   60.2813 O   0  0  0  0  0  0  0  0  0  0  0  0
  -38.0386   61.3200   61.1610 O   0  0  0  0  0  0  0  0  0  0  0  0
  -37.4640   61.2488   61.8977 H   0  0  0  0  0  0  0  0  0  0  0  0
  -45.1189   58.2755   64.9983 C   0  0  0  0  0  0  0  0  0  0  0  0
  -46.1710   57.6155   65.8570 C   0  0  0  0  0  0  0  0  0  0  0  0
  -47.5906   57.7322   65.4879 C   0  0  0  0  0  0  0  0  0  0  0  0
  -47.9838   58.6872   64.3889 C   0  0  0  0  0  0  0  0  0  0  0  0
  -49.4203   58.4360   63.9437 C   0  0  0  0  0  0  0  0  0  0  0  0
  -49.6440   58.9909   62.5372 C   0  0  0  0  0  0  0  0  0  0  0  0
  -50.7600   58.2462   61.8061 C   0  0  0  0  0  0  0  0  0  0  0  0
  -50.2413   57.5178   60.5636 C   0  0  0  0  0  0  0  0  0  0  0  0
  -48.7633   57.7856   60.2915 C   0  0  0  0  0  0  0  0  0  0  0  0
  7  8  2  0  0  0
  7  6  1  0  0  0
  7  9  1  0  0  0
  6  5  1  0  0  0
  9 10  1  0  0  0
  5  4  1  0  0  0
  4  3  1  0  0  0
  3  2  1  0  0  0
  2  1  1  0  0  0
  1 11  1  0  0  0
 11 12  1  0  0  0
 12 13  2  0  0  0
 13 14  1  0  0  0
 14 15  1  0  0  0
 15 16  1  0  0  0
 16 17  1  0  0  0
 17 18  1  0  0  0
 18 19  1  0  0  0
M  END
> <minimizedAffinity>
-6.58650

> <CNNscore>
0.7684000134

> <CNNaffinity>
6.4120454788

> <CNN_VS>
4.9270157814

> <CNNaffinity_variance>
0.7903680205

$$$$
/media/chris/experiments/cd1a-new-docking/inputs/ligands/4x6d_2_ligand.pdb


 19 18  0  0  0  0  0  0  0  0999 V2000
  -48.6968   59.1842   65.9581 C   0  0  0  0  0  0  0  0  0  0  0  0
  -48.3164   60.5846   65.4977 C   0  0  0  0  0  0  0  0  0  0  0  0
  -46.8193   60.7435   65.2939 C   0  0  0  0  0  0  0  0  0  0  0  0
  -46.0744   59.6021   65.9664 C   0  0  0  0  0  0  0  0  0  0  0  0
  -44.8430   59.2649   65.1451 C   0  0  0  0  0  0  0  0  0  0  0  0
  -43.7859   60.3533   65.2417 C   0  0  0  0  0  0  0  0  0  0  0  0
  -42.8779   60.0584   66.4098 C   0  0  0  0  0  0  0  0  0  0  0  0
  -42.5534   60.9708   67.1945 O   0  0  0  0  0  0  0  0  0  0  0  0
  -42.4338   58.9079   66.6099 O   0  0  0  0  0  0  0  0  0  0  0  0
  -42.6662   58.2087   66.0311 H   0  0  0  0  0  0  0  0  0  0  0  0
  -49.5488   58.5654   64.8594 C   0  0  0  0  0  0  0  0  0  0  0  0
  -50.2402   59.6189   64.0277 C   0  0  0  0  0  0  0  0  0  0  0  0
  -50.6361   59.3106   62.6443 C   0  0  0  0  0  0  0  0  0  0  0  0
  -50.1501   58.0300   62.0134 C   0  0  0  0  0  0  0  0  0  0  0  0
  -51.0364   57.6378   60.8363 C   0  0  0  0  0  0  0  0  0  0  0  0
  -50.2957   57.8604   59.5179 C   0  0  0  0  0  0  0  0  0  0  0  0
  -48.8177   57.4896   59.6298 C   0  0  0  0  0  0  0  0  0  0  0  0
  -47.9486   58.3146   58.6772 C   0  0  0  0  0  0  0  0  0  0  0  0
  -46.4661   57.9631   58.7703 C   0  0  0  0  0  0  0  0  0  0  0  0
  7  8  2  0  0  0
  7  6  1  0  0  0
  7  9  1  0  0  0
  6  5  1  0  0  0
  9 10  1  0  0  0
  5  4  1  0  0  0
  4  3  1  0  0  0
  3  2  1  0  0  0
  2  1  1  0  0  0
  1 11  1  0  0  0
 11 12  1  0  0  0
 12 13  2  0  0  0
 13 14  1  0  0  0
 14 15  1  0  0  0
 15 16  1  0  0  0
 16 17  1  0  0  0
 17 18  1  0  0  0
 18 19  1  0  0  0
M  END
> <minimizedAffinity>
-7.08603

> <CNNscore>
0.7457943559

> <CNNaffinity>
6.3985581398

> <CNN_VS>
4.7720084190

> <CNNaffinity_variance>
0.4661142826

$$$$
/media/chris/experiments/cd1a-new-docking/inputs/ligands/4x6d_2_ligand.pdb


 19 18  0  0  0  0  0  0  0  0999 V2000
  -43.5124   58.7262   64.8931 C   0  0  0  0  0  0  0  0  0  0  0  0
  -42.5248   58.1185   65.8796 C   0  0  0  0  0  0  0  0  0  0  0  0
  -41.8655   59.1647   66.7620 C   0  0  0  0  0  0  0  0  0  0  0  0
  -42.5067   60.5235   66.5329 C   0  0  0  0  0  0  0  0  0  0  0  0
  -41.4172   61.5413   66.2470 C   0  0  0  0  0  0  0  0  0  0  0  0
  -40.5700   61.1387   65.0504 C   0  0  0  0  0  0  0  0  0  0  0  0
  -39.1159   61.1381   65.4519 C   0  0  0  0  0  0  0  0  0  0  0  0
  -38.4724   60.0707   65.4665 O   0  0  0  0  0  0  0  0  0  0  0  0
  -38.5343   62.1944   65.7787 O   0  0  0  0  0  0  0  0  0  0  0  0
  -39.0010   63.0069   65.7741 H   0  0  0  0  0  0  0  0  0  0  0  0
  -44.7115   57.7918   64.8237 C   0  0  0  0  0  0  0  0  0  0  0  0
  -45.2565   57.4784   66.1964 C   0  0  0  0  0  0  0  0  0  0  0  0
  -46.7114   57.3943   66.4005 C   0  0  0  0  0  0  0  0  0  0  0  0
  -47.6318   57.8368   65.2908 C   0  0  0  0  0  0  0  0  0  0  0  0
  -48.6460   58.8532   65.8037 C   0  0  0  0  0  0  0  0  0  0  0  0
  -49.9219   58.7989   64.9639 C   0  0  0  0  0  0  0  0  0  0  0  0
  -49.7021   59.3690   63.5635 C   0  0  0  0  0  0  0  0  0  0  0  0
  -50.4454   58.5623   62.4957 C   0  0  0  0  0  0  0  0  0  0  0  0
  -49.7714   58.6245   61.1275 C   0  0  0  0  0  0  0  0  0  0  0  0
  7  8  2  0  0  0
  7  6  1  0  0  0
  7  9  1  0  0  0
  6  5  1  0  0  0
  9 10  1  0  0  0
  5  4  1  0  0  0
  4  3  1  0  0  0
  3  2  1  0  0  0
  2  1  1  0  0  0
  1 11  1  0  0  0
 11 12  1  0  0  0
 12 13  2  0  0  0
 13 14  1  0  0  0
 14 15  1  0  0  0
 15 16  1  0  0  0
 16 17  1  0  0  0
 17 18  1  0  0  0
 18 19  1  0  0  0
M  END
> <minimizedAffinity>
-6.38773

> <CNNscore>
0.7435708046

> <CNNaffinity>
6.2190217972

> <CNN_VS>
4.6242828369

> <CNNaffinity_variance>
0.3063635230

$$$$
/media/chris/experiments/cd1a-new-docking/inputs/ligands/4x6d_2_ligand.pdb


 19 18  0  0  0  0  0  0  0  0999 V2000
  -44.0775   60.0518   65.5237 C   0  0  0  0  0  0  0  0  0  0  0  0
  -43.3378   60.1810   66.8480 C   0  0  0  0  0  0  0  0  0  0  0  0
  -41.8591   59.8556   66.7228 C   0  0  0  0  0  0  0  0  0  0  0  0
  -41.1298   60.9909   66.0233 C   0  0  0  0  0  0  0  0  0  0  0  0
  -40.0792   60.4056   65.0969 C   0  0  0  0  0  0  0  0  0  0  0  0
  -40.1668   58.8891   65.0323 C   0  0  0  0  0  0  0  0  0  0  0  0
  -38.9394   58.3521   64.3389 C   0  0  0  0  0  0  0  0  0  0  0  0
  -37.9309   58.0443   65.0036 O   0  0  0  0  0  0  0  0  0  0  0  0
  -38.9069   58.2106   63.0980 O   0  0  0  0  0  0  0  0  0  0  0  0
  -39.6549   58.4364   62.5809 H   0  0  0  0  0  0  0  0  0  0  0  0
  -45.0596   58.8983   65.6676 C   0  0  0  0  0  0  0  0  0  0  0  0
  -46.2089   59.2529   66.5804 C   0  0  0  0  0  0  0  0  0  0  0  0
  -47.5919   59.1157   66.0970 C   0  0  0  0  0  0  0  0  0  0  0  0
  -47.8304   58.8354   64.6345 C   0  0  0  0  0  0  0  0  0  0  0  0
  -49.3096   58.5790   64.3682 C   0  0  0  0  0  0  0  0  0  0  0  0
  -49.9504   59.8031   63.7145 C   0  0  0  0  0  0  0  0  0  0  0  0
  -50.7826   59.4208   62.4915 C   0  0  0  0  0  0  0  0  0  0  0  0
  -50.4781   57.9978   62.0162 C   0  0  0  0  0  0  0  0  0  0  0  0
  -50.7264   57.8042   60.5226 C   0  0  0  0  0  0  0  0  0  0  0  0
  7  8  2  0  0  0
  7  6  1  0  0  0
  7  9  1  0  0  0
  6  5  1  0  0  0
  9 10  1  0  0  0
  5  4  1  0  0  0
  4  3  1  0  0  0
  3  2  1  0  0  0
  2  1  1  0  0  0
  1 11  1  0  0  0
 11 12  1  0  0  0
 12 13  2  0  0  0
 13 14  1  0  0  0
 14 15  1  0  0  0
 15 16  1  0  0  0
 16 17  1  0  0  0
 17 18  1  0  0  0
 18 19  1  0  0  0
M  END
> <minimizedAffinity>
-6.23828

> <CNNscore>
0.7055861950

> <CNNaffinity>
6.1538152695

> <CNN_VS>
4.3420472145

> <CNNaffinity_variance>
0.3122940361

$$$$
/media/chris/experiments/cd1a-new-docking/inputs/ligands/4x6d_2_ligand.pdb


 19 18  0  0  0  0  0  0  0  0999 V2000
  -45.3039   59.7833   66.7713 C   0  0  0  0  0  0  0  0  0  0  0  0
  -43.8526   59.8283   66.3135 C   0  0  0  0  0  0  0  0  0  0  0  0
  -43.5174   58.7180   65.3322 C   0  0  0  0  0  0  0  0  0  0  0  0
  -42.0957   58.2303   65.5578 C   0  0  0  0  0  0  0  0  0  0  0  0
  -41.2884   59.3437   66.2006 C   0  0  0  0  0  0  0  0  0  0  0  0
  -40.2187   59.8785   65.2616 C   0  0  0  0  0  0  0  0  0  0  0  0
  -39.9080   61.3082   65.6292 C   0  0  0  0  0  0  0  0  0  0  0  0
  -38.7324   61.6525   65.8593 O   0  0  0  0  0  0  0  0  0  0  0  0
  -40.8125   62.1658   65.7140 O   0  0  0  0  0  0  0  0  0  0  0  0
  -41.7025   61.9264   65.5447 H   0  0  0  0  0  0  0  0  0  0  0  0
  -46.1648   59.6428   65.5244 C   0  0  0  0  0  0  0  0  0  0  0  0
  -46.8355   60.9450   65.1582 C   0  0  0  0  0  0  0  0  0  0  0  0
  -48.2472   61.1619   65.5126 C   0  0  0  0  0  0  0  0  0  0  0  0
  -49.0558   60.0015   66.0359 C   0  0  0  0  0  0  0  0  0  0  0  0
  -50.5293   60.1662   65.6802 C   0  0  0  0  0  0  0  0  0  0  0  0
  -50.7038   60.2357   64.1633 C   0  0  0  0  0  0  0  0  0  0  0  0
  -50.2892   58.9305   63.4858 C   0  0  0  0  0  0  0  0  0  0  0  0
  -50.1304   59.0984   61.9725 C   0  0  0  0  0  0  0  0  0  0  0  0
  -50.1538   57.7696   61.2215 C   0  0  0  0  0  0  0  0  0  0  0  0
  7  8  2  0  0  0
  7  6  1  0  0  0
  7  9  1  0  0  0
  6  5  1  0  0  0
  9 10  1  0  0  0
  5  4  1  0  0  0
  4  3  1  0  0  0
  3  2  1  0  0  0
  2  1  1  0  0  0
  1 11  1  0  0  0
 11 12  1  0  0  0
 12 13  2  0  0  0
 13 14  1  0  0  0
 14 15  1  0  0  0
 15 16  1  0  0  0
 16 17  1  0  0  0
 17 18  1  0  0  0
 18 19  1  0  0  0
M  END
> <minimizedAffinity>
-6.70818

> <CNNscore>
0.6936789751

> <CNNaffinity>
5.9601683617

> <CNN_VS>
4.1344432831

> <CNNaffinity_variance>
0.2941822410

$$$$
/media/chris/experiments/cd1a-new-docking/inputs/ligands/4x6d_2_ligand.pdb


 19 18  0  0  0  0  0  0  0  0999 V2000
  -42.5108   58.1513   65.8336 C   0  0  0  0  0  0  0  0  0  0  0  0
  -41.3249   59.0670   66.1035 C   0  0  0  0  0  0  0  0  0  0  0  0
  -40.7003   59.6020   64.8260 C   0  0  0  0  0  0  0  0  0  0  0  0
  -39.6367   58.6414   64.3201 C   0  0  0  0  0  0  0  0  0  0  0  0
  -38.9920   59.2292   63.0777 C   0  0  0  0  0  0  0  0  0  0  0  0
  -39.7142   60.4816   62.6069 C   0  0  0  0  0  0  0  0  0  0  0  0
  -39.0738   60.9718   61.3320 C   0  0  0  0  0  0  0  0  0  0  0  0
  -39.7368   61.0175   60.2775 O   0  0  0  0  0  0  0  0  0  0  0  0
  -37.8783   61.3336   61.3059 O   0  0  0  0  0  0  0  0  0  0  0  0
  -37.3633   61.3065   62.0882 H   0  0  0  0  0  0  0  0  0  0  0  0
  -43.7650   59.0113   65.8900 C   0  0  0  0  0  0  0  0  0  0  0  0
  -44.9136   58.3747   65.1447 C   0  0  0  0  0  0  0  0  0  0  0  0
  -46.2345   59.0231   65.1512 C   0  0  0  0  0  0  0  0  0  0  0  0
  -46.4718   60.1888   66.0782 C   0  0  0  0  0  0  0  0  0  0  0  0
  -47.9605   60.5010   66.1828 C   0  0  0  0  0  0  0  0  0  0  0  0
  -48.5736   60.6329   64.7888 C   0  0  0  0  0  0  0  0  0  0  0  0
  -50.0897   60.8121   64.8523 C   0  0  0  0  0  0  0  0  0  0  0  0
  -50.8058   60.0034   63.7676 C   0  0  0  0  0  0  0  0  0  0  0  0
  -49.9637   58.8468   63.2353 C   0  0  0  0  0  0  0  0  0  0  0  0
  7  8  2  0  0  0
  7  6  1  0  0  0
  7  9  1  0  0  0
  6  5  1  0  0  0
  9 10  1  0  0  0
  5  4  1  0  0  0
  4  3  1  0  0  0
  3  2  1  0  0  0
  2  1  1  0  0  0
  1 11  1  0  0  0
 11 12  1  0  0  0
 12 13  2  0  0  0
 13 14  1  0  0  0
 14 15  1  0  0  0
 15 16  1  0  0  0
 16 17  1  0  0  0
 17 18  1  0  0  0
 18 19  1  0  0  0
M  END
> <minimizedAffinity>
-6.55362

> <CNNscore>
0.6437644958

> <CNNaffinity>
5.9822645187

> <CNN_VS>
3.8511695862

> <CNNaffinity_variance>
0.4302378595

$$$$
