/media/chris/experiments/cd1a-new-docking/inputs/ligands/4x6d_2_ligand.pdb


 19 18  0  0  0  0  0  0  0  0999 V2000
  -43.4573   60.3151   65.2077 C   0  0  0  0  0  0  0  0  0  0  0  0
  -42.7687   59.9178   66.5061 C   0  0  0  0  0  0  0  0  0  0  0  0
  -41.2554   59.8842   66.3755 C   0  0  0  0  0  0  0  0  0  0  0  0
  -40.8515   59.0478   65.1724 C   0  0  0  0  0  0  0  0  0  0  0  0
  -39.5476   59.5869   64.6122 C   0  0  0  0  0  0  0  0  0  0  0  0
  -38.7069   60.2571   65.6872 C   0  0  0  0  0  0  0  0  0  0  0  0
  -37.8573   61.3303   65.0532 C   0  0  0  0  0  0  0  0  0  0  0  0
  -37.2337   61.0924   64.0005 O   0  0  0  0  0  0  0  0  0  0  0  0
  -37.7585   62.4650   65.5664 O   0  0  0  0  0  0  0  0  0  0  0  0
  -38.2196   62.6631   66.3577 H   0  0  0  0  0  0  0  0  0  0  0  0
  -44.9165   59.9002   65.3272 C   0  0  0  0  0  0  0  0  0  0  0  0
  -45.2541   59.4386   66.7246 C   0  0  0  0  0  0  0  0  0  0  0  0
  -46.6586   59.2015   67.0938 C   0  0  0  0  0  0  0  0  0  0  0  0
  -47.7469   59.6325   66.1429 C   0  0  0  0  0  0  0  0  0  0  0  0
  -48.3487   58.4273   65.4289 C   0  0  0  0  0  0  0  0  0  0  0  0
  -49.8737   58.5288   65.4108 C   0  0  0  0  0  0  0  0  0  0  0  0
  -50.3472   59.9684   65.6050 C   0  0  0  0  0  0  0  0  0  0  0  0
  -51.1778   60.4611   64.4173 C   0  0  0  0  0  0  0  0  0  0  0  0
  -50.7938   59.7864   63.1030 C   0  0  0  0  0  0  0  0  0  0  0  0
  7  8  2  0  0  0
  7  6  1  0  0  0
  7  9  1  0  0  0
  6  5  1  0  0  0
  9 10  1  0  0  0
  5  4  1  0  0  0
  4  3  1  0  0  0
  3  2  1  0  0  0
  2  1  1  0  0  0
  1 11  1  0  0  0
 11 12  1  0  0  0
 12 13  2  0  0  0
 13 14  1  0  0  0
 14 15  1  0  0  0
 15 16  1  0  0  0
 16 17  1  0  0  0
 17 18  1  0  0  0
 18 19  1  0  0  0
M  END
> <minimizedAffinity>
-6.42124

> <CNNscore>
0.8003962636

> <CNNaffinity>
6.1434001923

> <CNN_VS>
4.9171547890

> <CNNaffinity_variance>
0.3467276990

$$$$
/media/chris/experiments/cd1a-new-docking/inputs/ligands/4x6d_2_ligand.pdb


 19 18  0  0  0  0  0  0  0  0999 V2000
  -46.2770   58.0445   65.0156 C   0  0  0  0  0  0  0  0  0  0  0  0
  -44.9002   57.4951   65.3626 C   0  0  0  0  0  0  0  0  0  0  0  0
  -43.7912   58.5023   65.1101 C   0  0  0  0  0  0  0  0  0  0  0  0
  -42.5923   58.1940   65.9919 C   0  0  0  0  0  0  0  0  0  0  0  0
  -42.1384   59.4730   66.6722 C   0  0  0  0  0  0  0  0  0  0  0  0
  -40.7820   59.9321   66.1615 C   0  0  0  0  0  0  0  0  0  0  0  0
  -40.9227   61.3029   65.5477 C   0  0  0  0  0  0  0  0  0  0  0  0
  -41.7710   61.5041   64.6569 O   0  0  0  0  0  0  0  0  0  0  0  0
  -40.1973   62.2526   65.9118 O   0  0  0  0  0  0  0  0  0  0  0  0
  -39.5537   62.1212   66.5799 H   0  0  0  0  0  0  0  0  0  0  0  0
  -46.2223   59.5524   65.2128 C   0  0  0  0  0  0  0  0  0  0  0  0
  -46.9765   59.9827   66.4480 C   0  0  0  0  0  0  0  0  0  0  0  0
  -48.3681   60.4455   66.3273 C   0  0  0  0  0  0  0  0  0  0  0  0
  -48.9406   60.6892   64.9535 C   0  0  0  0  0  0  0  0  0  0  0  0
  -49.9327   59.5935   64.5798 C   0  0  0  0  0  0  0  0  0  0  0  0
  -50.8942   60.0940   63.5022 C   0  0  0  0  0  0  0  0  0  0  0  0
  -50.3484   59.8451   62.0970 C   0  0  0  0  0  0  0  0  0  0  0  0
  -49.9317   58.3858   61.8970 C   0  0  0  0  0  0  0  0  0  0  0  0
  -50.8961   57.6093   61.0043 C   0  0  0  0  0  0  0  0  0  0  0  0
  7  8  2  0  0  0
  7  6  1  0  0  0
  7  9  1  0  0  0
  6  5  1  0  0  0
  9 10  1  0  0  0
  5  4  1  0  0  0
  4  3  1  0  0  0
  3  2  1  0  0  0
  2  1  1  0  0  0
  1 11  1  0  0  0
 11 12  1  0  0  0
 12 13  2  0  0  0
 13 14  1  0  0  0
 14 15  1  0  0  0
 15 16  1  0  0  0
 16 17  1  0  0  0
 17 18  1  0  0  0
 18 19  1  0  0  0
M  END
> <minimizedAffinity>
-6.60319

> <CNNscore>
0.7948869467

> <CNNaffinity>
6.2057714462

> <CNN_VS>
4.9328866005

> <CNNaffinity_variance>
0.3395115733

$$$$
/media/chris/experiments/cd1a-new-docking/inputs/ligands/4x6d_2_ligand.pdb


 19 18  0  0  0  0  0  0  0  0999 V2000
  -47.7153   60.9637   65.7066 C   0  0  0  0  0  0  0  0  0  0  0  0
  -46.3154   60.9307   65.1093 C   0  0  0  0  0  0  0  0  0  0  0  0
  -45.5795   59.6389   65.4223 C   0  0  0  0  0  0  0  0  0  0  0  0
  -44.6608   59.8351   66.6171 C   0  0  0  0  0  0  0  0  0  0  0  0
  -43.2191   59.7865   66.1440 C   0  0  0  0  0  0  0  0  0  0  0  0
  -42.3706   60.8569   66.8117 C   0  0  0  0  0  0  0  0  0  0  0  0
  -41.4060   61.4253   65.8007 C   0  0  0  0  0  0  0  0  0  0  0  0
  -41.2273   60.8440   64.7127 O   0  0  0  0  0  0  0  0  0  0  0  0
  -40.7701   62.4754   66.0321 O   0  0  0  0  0  0  0  0  0  0  0  0
  -40.8907   62.9269   66.8443 H   0  0  0  0  0  0  0  0  0  0  0  0
  -48.6915   61.1525   64.5545 C   0  0  0  0  0  0  0  0  0  0  0  0
  -50.1106   60.8439   64.9676 C   0  0  0  0  0  0  0  0  0  0  0  0
  -50.9869   60.0909   64.0564 C   0  0  0  0  0  0  0  0  0  0  0  0
  -50.5244   59.8334   62.6443 C   0  0  0  0  0  0  0  0  0  0  0  0
  -50.2223   58.3535   62.4364 C   0  0  0  0  0  0  0  0  0  0  0  0
  -50.7527   57.8897   61.0799 C   0  0  0  0  0  0  0  0  0  0  0  0
  -49.7242   57.0455   60.3289 C   0  0  0  0  0  0  0  0  0  0  0  0
  -49.0100   57.8510   59.2406 C   0  0  0  0  0  0  0  0  0  0  0  0
  -47.4904   57.7236   59.3075 C   0  0  0  0  0  0  0  0  0  0  0  0
  7  8  2  0  0  0
  7  6  1  0  0  0
  7  9  1  0  0  0
  6  5  1  0  0  0
  9 10  1  0  0  0
  5  4  1  0  0  0
  4  3  1  0  0  0
  3  2  1  0  0  0
  2  1  1  0  0  0
  1 11  1  0  0  0
 11 12  1  0  0  0
 12 13  2  0  0  0
 13 14  1  0  0  0
 14 15  1  0  0  0
 15 16  1  0  0  0
 16 17  1  0  0  0
 17 18  1  0  0  0
 18 19  1  0  0  0
M  END
> <minimizedAffinity>
-7.13443

> <CNNscore>
0.7888731956

> <CNNaffinity>
6.1587920189

> <CNN_VS>
4.8585057259

> <CNNaffinity_variance>
0.4461935461

$$$$
/media/chris/experiments/cd1a-new-docking/inputs/ligands/4x6d_2_ligand.pdb


 19 18  0  0  0  0  0  0  0  0999 V2000
  -45.3999   59.8511   66.4438 C   0  0  0  0  0  0  0  0  0  0  0  0
  -44.7101   60.3083   65.1660 C   0  0  0  0  0  0  0  0  0  0  0  0
  -43.4010   59.5783   64.9182 C   0  0  0  0  0  0  0  0  0  0  0  0
  -42.7423   59.2196   66.2402 C   0  0  0  0  0  0  0  0  0  0  0  0
  -41.2614   59.5429   66.1572 C   0  0  0  0  0  0  0  0  0  0  0  0
  -41.0213   61.0207   65.8922 C   0  0  0  0  0  0  0  0  0  0  0  0
  -39.6311   61.2038   65.3359 C   0  0  0  0  0  0  0  0  0  0  0  0
  -39.2349   60.4866   64.3966 O   0  0  0  0  0  0  0  0  0  0  0  0
  -38.8555   62.0648   65.8026 O   0  0  0  0  0  0  0  0  0  0  0  0
  -39.1349   62.6136   66.5088 H   0  0  0  0  0  0  0  0  0  0  0  0
  -46.8988   59.9873   66.2193 C   0  0  0  0  0  0  0  0  0  0  0  0
  -47.2161   61.0420   65.1864 C   0  0  0  0  0  0  0  0  0  0  0  0
  -48.5194   61.0237   64.5036 C   0  0  0  0  0  0  0  0  0  0  0  0
  -49.4235   59.8306   64.6864 C   0  0  0  0  0  0  0  0  0  0  0  0
  -50.7920   60.0901   64.0663 C   0  0  0  0  0  0  0  0  0  0  0  0
  -50.7391   59.8706   62.5545 C   0  0  0  0  0  0  0  0  0  0  0  0
  -50.5454   58.3963   62.2033 C   0  0  0  0  0  0  0  0  0  0  0  0
  -50.2926   58.1946   60.7070 C   0  0  0  0  0  0  0  0  0  0  0  0
  -48.8449   57.8264   60.3931 C   0  0  0  0  0  0  0  0  0  0  0  0
  7  8  2  0  0  0
  7  6  1  0  0  0
  7  9  1  0  0  0
  6  5  1  0  0  0
  9 10  1  0  0  0
  5  4  1  0  0  0
  4  3  1  0  0  0
  3  2  1  0  0  0
  2  1  1  0  0  0
  1 11  1  0  0  0
 11 12  1  0  0  0
 12 13  2  0  0  0
 13 14  1  0  0  0
 14 15  1  0  0  0
 15 16  1  0  0  0
 16 17  1  0  0  0
 17 18  1  0  0  0
 18 19  1  0  0  0
M  END
> <minimizedAffinity>
-6.54371

> <CNNscore>
0.7778888941

> <CNNaffinity>
6.2452960014

> <CNN_VS>
4.8581461906

> <CNNaffinity_variance>
0.4759895802

$$$$
/media/chris/experiments/cd1a-new-docking/inputs/ligands/4x6d_2_ligand.pdb


 19 18  0  0  0  0  0  0  0  0999 V2000
  -48.3983   58.0850   65.1804 C   0  0  0  0  0  0  0  0  0  0  0  0
  -47.3885   59.0846   65.7271 C   0  0  0  0  0  0  0  0  0  0  0  0
  -46.3379   58.4284   66.6067 C   0  0  0  0  0  0  0  0  0  0  0  0
  -45.6112   57.3407   65.8328 C   0  0  0  0  0  0  0  0  0  0  0  0
  -44.8796   57.9729   64.6624 C   0  0  0  0  0  0  0  0  0  0  0  0
  -43.4462   58.3311   65.0210 C   0  0  0  0  0  0  0  0  0  0  0  0
  -43.2207   59.7980   64.7511 C   0  0  0  0  0  0  0  0  0  0  0  0
  -44.1743   60.5983   64.8136 O   0  0  0  0  0  0  0  0  0  0  0  0
  -42.0878   60.2355   64.4582 O   0  0  0  0  0  0  0  0  0  0  0  0
  -41.3583   59.6497   64.4062 H   0  0  0  0  0  0  0  0  0  0  0  0
  -48.7408   58.5209   63.7632 C   0  0  0  0  0  0  0  0  0  0  0  0
  -50.1237   59.1214   63.6815 C   0  0  0  0  0  0  0  0  0  0  0  0
  -50.8091   59.1970   62.3816 C   0  0  0  0  0  0  0  0  0  0  0  0
  -50.0349   58.8770   61.1275 C   0  0  0  0  0  0  0  0  0  0  0  0
  -50.5286   57.5755   60.5055 C   0  0  0  0  0  0  0  0  0  0  0  0
  -49.3501   56.7649   59.9667 C   0  0  0  0  0  0  0  0  0  0  0  0
  -48.1484   57.6544   59.6518 C   0  0  0  0  0  0  0  0  0  0  0  0
  -47.8540   57.7054   58.1505 C   0  0  0  0  0  0  0  0  0  0  0  0
  -46.6452   58.5734   57.8110 C   0  0  0  0  0  0  0  0  0  0  0  0
  7  8  2  0  0  0
  7  6  1  0  0  0
  7  9  1  0  0  0
  6  5  1  0  0  0
  9 10  1  0  0  0
  5  4  1  0  0  0
  4  3  1  0  0  0
  3  2  1  0  0  0
  2  1  1  0  0  0
  1 11  1  0  0  0
 11 12  1  0  0  0
 12 13  2  0  0  0
 13 14  1  0  0  0
 14 15  1  0  0  0
 15 16  1  0  0  0
 16 17  1  0  0  0
 17 18  1  0  0  0
 18 19  1  0  0  0
M  END
> <minimizedAffinity>
-6.89513

> <CNNscore>
0.7575708032

> <CNNaffinity>
6.3762955666

> <CNN_VS>
4.8304953575

> <CNNaffinity_variance>
0.2094585001

$$$$
/media/chris/experiments/cd1a-new-docking/inputs/ligands/4x6d_2_ligand.pdb


 19 18  0  0  0  0  0  0  0  0999 V2000
  -50.0767   60.1586   65.0968 C   0  0  0  0  0  0  0  0  0  0  0  0
  -49.3663   61.4817   64.8471 C   0  0  0  0  0  0  0  0  0  0  0  0
  -47.8605   61.3201   64.7270 C   0  0  0  0  0  0  0  0  0  0  0  0
  -47.3154   60.5741   65.9338 C   0  0  0  0  0  0  0  0  0  0  0  0
  -46.1391   59.7202   65.4959 C   0  0  0  0  0  0  0  0  0  0  0  0
  -45.1261   59.5398   66.6152 C   0  0  0  0  0  0  0  0  0  0  0  0
  -43.8037   60.1239   66.1843 C   0  0  0  0  0  0  0  0  0  0  0  0
  -43.6347   60.4820   65.0025 O   0  0  0  0  0  0  0  0  0  0  0  0
  -42.8600   60.2549   66.9924 O   0  0  0  0  0  0  0  0  0  0  0  0
  -42.9675   59.9914   67.8851 H   0  0  0  0  0  0  0  0  0  0  0  0
  -50.4152   59.5661   63.7366 C   0  0  0  0  0  0  0  0  0  0  0  0
  -49.4613   58.4595   63.3555 C   0  0  0  0  0  0  0  0  0  0  0  0
  -49.2274   58.1569   61.9346 C   0  0  0  0  0  0  0  0  0  0  0  0
  -50.1060   58.8061   60.8949 C   0  0  0  0  0  0  0  0  0  0  0  0
  -49.9394   58.1209   59.5431 C   0  0  0  0  0  0  0  0  0  0  0  0
  -49.2862   56.7504   59.7203 C   0  0  0  0  0  0  0  0  0  0  0  0
  -48.1739   56.5174   58.6990 C   0  0  0  0  0  0  0  0  0  0  0  0
  -47.9723   57.7311   57.7881 C   0  0  0  0  0  0  0  0  0  0  0  0
  -46.6233   58.4140   57.9978 C   0  0  0  0  0  0  0  0  0  0  0  0
  7  8  2  0  0  0
  7  6  1  0  0  0
  7  9  1  0  0  0
  6  5  1  0  0  0
  9 10  1  0  0  0
  5  4  1  0  0  0
  4  3  1  0  0  0
  3  2  1  0  0  0
  2  1  1  0  0  0
  1 11  1  0  0  0
 11 12  1  0  0  0
 12 13  2  0  0  0
 13 14  1  0  0  0
 14 15  1  0  0  0
 15 16  1  0  0  0
 16 17  1  0  0  0
 17 18  1  0  0  0
 18 19  1  0  0  0
M  END
> <minimizedAffinity>
-6.79332

> <CNNscore>
0.6562088132

> <CNNaffinity>
6.2546625137

> <CNN_VS>
4.1043648720

> <CNNaffinity_variance>
0.3032514751

$$$$
/media/chris/experiments/cd1a-new-docking/inputs/ligands/4x6d_2_ligand.pdb


 19 18  0  0  0  0  0  0  0  0999 V2000
  -41.7723   59.0405   66.7874 C   0  0  0  0  0  0  0  0  0  0  0  0
  -41.4067   58.8382   65.3235 C   0  0  0  0  0  0  0  0  0  0  0  0
  -39.9190   59.0078   65.0665 C   0  0  0  0  0  0  0  0  0  0  0  0
  -39.5065   60.4507   65.3076 C   0  0  0  0  0  0  0  0  0  0  0  0
  -38.1362   60.4695   65.9608 C   0  0  0  0  0  0  0  0  0  0  0  0
  -37.2936   61.6355   65.4690 C   0  0  0  0  0  0  0  0  0  0  0  0
  -36.0681   61.7619   66.3395 C   0  0  0  0  0  0  0  0  0  0  0  0
  -34.9421   61.4977   65.8748 O   0  0  0  0  0  0  0  0  0  0  0  0
  -36.1557   62.1252   67.5316 O   0  0  0  0  0  0  0  0  0  0  0  0
  -36.9933   62.3282   67.8992 H   0  0  0  0  0  0  0  0  0  0  0  0
  -42.8250   60.1381   66.8406 C   0  0  0  0  0  0  0  0  0  0  0  0
  -43.4894   60.3413   65.5001 C   0  0  0  0  0  0  0  0  0  0  0  0
  -44.9548   60.2602   65.3938 C   0  0  0  0  0  0  0  0  0  0  0  0
  -45.7466   59.7606   66.5761 C   0  0  0  0  0  0  0  0  0  0  0  0
  -46.1956   58.3203   66.3557 C   0  0  0  0  0  0  0  0  0  0  0  0
  -46.9807   58.2039   65.0494 C   0  0  0  0  0  0  0  0  0  0  0  0
  -48.4087   57.7163   65.2892 C   0  0  0  0  0  0  0  0  0  0  0  0
  -49.4464   58.7582   64.8638 C   0  0  0  0  0  0  0  0  0  0  0  0
  -49.8772   58.6077   63.4072 C   0  0  0  0  0  0  0  0  0  0  0  0
  7  8  2  0  0  0
  7  6  1  0  0  0
  7  9  1  0  0  0
  6  5  1  0  0  0
  9 10  1  0  0  0
  5  4  1  0  0  0
  4  3  1  0  0  0
  3  2  1  0  0  0
  2  1  1  0  0  0
  1 11  1  0  0  0
 11 12  1  0  0  0
 12 13  2  0  0  0
 13 14  1  0  0  0
 14 15  1  0  0  0
 15 16  1  0  0  0
 16 17  1  0  0  0
 17 18  1  0  0  0
 18 19  1  0  0  0
M  END
> <minimizedAffinity>
-6.20588

> <CNNscore>
0.6185577512

> <CNNaffinity>
5.8831863403

> <CNN_VS>
3.6390905380

> <CNNaffinity_variance>
0.1017591953

$$$$
/media/chris/experiments/cd1a-new-docking/inputs/ligands/4x6d_2_ligand.pdb


 19 18  0  0  0  0  0  0  0  0999 V2000
  -38.0117   59.7462   60.4044 C   0  0  0  0  0  0  0  0  0  0  0  0
  -36.9861   58.6443   60.1766 C   0  0  0  0  0  0  0  0  0  0  0  0
  -36.5533   58.5436   58.7238 C   0  0  0  0  0  0  0  0  0  0  0  0
  -35.5155   57.4452   58.5609 C   0  0  0  0  0  0  0  0  0  0  0  0
  -35.7421   56.3902   59.6287 C   0  0  0  0  0  0  0  0  0  0  0  0
  -34.8202   55.1952   59.4447 C   0  0  0  0  0  0  0  0  0  0  0  0
  -33.4130   55.5949   59.8131 C   0  0  0  0  0  0  0  0  0  0  0  0
  -32.4852   55.4387   58.9956 O   0  0  0  0  0  0  0  0  0  0  0  0
  -33.1506   56.0806   60.9338 O   0  0  0  0  0  0  0  0  0  0  0  0
  -33.8344   56.2057   61.5621 H   0  0  0  0  0  0  0  0  0  0  0  0
  -38.5248   59.5955   61.8291 C   0  0  0  0  0  0  0  0  0  0  0  0
  -38.2107   58.2316   62.3954 C   0  0  0  0  0  0  0  0  0  0  0  0
  -38.6455   57.8916   63.7594 C   0  0  0  0  0  0  0  0  0  0  0  0
  -39.2006   58.9811   64.6423 C   0  0  0  0  0  0  0  0  0  0  0  0
  -40.6476   58.6848   65.0205 C   0  0  0  0  0  0  0  0  0  0  0  0
  -41.3163   59.9395   65.5818 C   0  0  0  0  0  0  0  0  0  0  0  0
  -42.0910   59.6418   66.8647 C   0  0  0  0  0  0  0  0  0  0  0  0
  -43.5665   60.0311   66.7435 C   0  0  0  0  0  0  0  0  0  0  0  0
  -43.9804   60.3534   65.3101 C   0  0  0  0  0  0  0  0  0  0  0  0
  7  8  2  0  0  0
  7  6  1  0  0  0
  7  9  1  0  0  0
  6  5  1  0  0  0
  9 10  1  0  0  0
  5  4  1  0  0  0
  4  3  1  0  0  0
  3  2  1  0  0  0
  2  1  1  0  0  0
  1 11  1  0  0  0
 11 12  1  0  0  0
 12 13  2  0  0  0
 13 14  1  0  0  0
 14 15  1  0  0  0
 15 16  1  0  0  0
 16 17  1  0  0  0
 17 18  1  0  0  0
 18 19  1  0  0  0
M  END
> <minimizedAffinity>
-6.12681

> <CNNscore>
0.6164889932

> <CNNaffinity>
5.4264535904

> <CNN_VS>
3.3453488350

> <CNNaffinity_variance>
0.0999807715

$$$$
/media/chris/experiments/cd1a-new-docking/inputs/ligands/4x6d_2_ligand.pdb


 19 18  0  0  0  0  0  0  0  0999 V2000
  -50.5347   59.0194   62.5561 C   0  0  0  0  0  0  0  0  0  0  0  0
  -49.6943   58.0504   61.7361 C   0  0  0  0  0  0  0  0  0  0  0  0
  -50.5021   57.3481   60.6579 C   0  0  0  0  0  0  0  0  0  0  0  0
  -50.1886   57.9449   59.2957 C   0  0  0  0  0  0  0  0  0  0  0  0
  -48.6820   58.0184   59.1242 C   0  0  0  0  0  0  0  0  0  0  0  0
  -48.2531   57.6031   57.7259 C   0  0  0  0  0  0  0  0  0  0  0  0
  -47.8596   56.1469   57.7414 C   0  0  0  0  0  0  0  0  0  0  0  0
  -47.8410   55.4938   56.6799 O   0  0  0  0  0  0  0  0  0  0  0  0
  -47.5523   55.5708   58.8065 O   0  0  0  0  0  0  0  0  0  0  0  0
  -47.5603   56.0448   59.6147 H   0  0  0  0  0  0  0  0  0  0  0  0
  -49.9976   58.9873   63.9796 C   0  0  0  0  0  0  0  0  0  0  0  0
  -50.4537   60.1858   64.7767 C   0  0  0  0  0  0  0  0  0  0  0  0
  -49.5248   61.3035   65.0069 C   0  0  0  0  0  0  0  0  0  0  0  0
  -48.0734   61.1364   64.6331 C   0  0  0  0  0  0  0  0  0  0  0  0
  -47.2488   60.7157   65.8445 C   0  0  0  0  0  0  0  0  0  0  0  0
  -46.2033   59.6769   65.4393 C   0  0  0  0  0  0  0  0  0  0  0  0
  -44.8518   60.3224   65.1372 C   0  0  0  0  0  0  0  0  0  0  0  0
  -43.7823   59.2785   64.8057 C   0  0  0  0  0  0  0  0  0  0  0  0
  -44.3497   57.8678   64.6729 C   0  0  0  0  0  0  0  0  0  0  0  0
  7  8  2  0  0  0
  7  6  1  0  0  0
  7  9  1  0  0  0
  6  5  1  0  0  0
  9 10  1  0  0  0
  5  4  1  0  0  0
  4  3  1  0  0  0
  3  2  1  0  0  0
  2  1  1  0  0  0
  1 11  1  0  0  0
 11 12  1  0  0  0
 12 13  2  0  0  0
 13 14  1  0  0  0
 14 15  1  0  0  0
 15 16  1  0  0  0
 16 17  1  0  0  0
 17 18  1  0  0  0
 18 19  1  0  0  0
M  END
> <minimizedAffinity>
-7.32188

> <CNNscore>
0.6121934652

> <CNNaffinity>
6.2026414871

> <CNN_VS>
3.7972166538

> <CNNaffinity_variance>
0.2625122368

$$$$
