/media/chris/experiments/cd1a-new-docking/inputs/ligands/4x6d_2_ligand.pdb


 19 18  0  0  0  0  0  0  0  0999 V2000
  -47.3681   60.9573   64.9991 C   0  0  0  0  0  0  0  0  0  0  0  0
  -46.6585   60.0202   65.9667 C   0  0  0  0  0  0  0  0  0  0  0  0
  -45.4325   59.3676   65.3509 C   0  0  0  0  0  0  0  0  0  0  0  0
  -44.2445   60.3129   65.4208 C   0  0  0  0  0  0  0  0  0  0  0  0
  -43.2431   59.7731   66.4260 C   0  0  0  0  0  0  0  0  0  0  0  0
  -42.4197   60.8861   67.0545 C   0  0  0  0  0  0  0  0  0  0  0  0
  -41.2553   61.2099   66.1518 C   0  0  0  0  0  0  0  0  0  0  0  0
  -40.5344   60.2941   65.7095 O   0  0  0  0  0  0  0  0  0  0  0  0
  -40.9894   62.3891   65.8361 O   0  0  0  0  0  0  0  0  0  0  0  0
  -41.5194   63.0913   66.1584 H   0  0  0  0  0  0  0  0  0  0  0  0
  -48.8113   60.4866   64.8937 C   0  0  0  0  0  0  0  0  0  0  0  0
  -48.8986   58.9957   64.6716 C   0  0  0  0  0  0  0  0  0  0  0  0
  -49.5241   58.4775   63.4445 C   0  0  0  0  0  0  0  0  0  0  0  0
  -50.2596   59.4338   62.5396 C   0  0  0  0  0  0  0  0  0  0  0  0
  -50.0715   59.0456   61.0771 C   0  0  0  0  0  0  0  0  0  0  0  0
  -50.2979   57.5450   60.8937 C   0  0  0  0  0  0  0  0  0  0  0  0
  -49.4162   56.9712   59.7856 C   0  0  0  0  0  0  0  0  0  0  0  0
  -48.5965   58.0594   59.0875 C   0  0  0  0  0  0  0  0  0  0  0  0
  -47.0994   57.7618   59.0781 C   0  0  0  0  0  0  0  0  0  0  0  0
  7  8  2  0  0  0
  7  6  1  0  0  0
  7  9  1  0  0  0
  6  5  1  0  0  0
  9 10  1  0  0  0
  5  4  1  0  0  0
  4  3  1  0  0  0
  3  2  1  0  0  0
  2  1  1  0  0  0
  1 11  1  0  0  0
 11 12  1  0  0  0
 12 13  2  0  0  0
 13 14  1  0  0  0
 14 15  1  0  0  0
 15 16  1  0  0  0
 16 17  1  0  0  0
 17 18  1  0  0  0
 18 19  1  0  0  0
M  END
> <minimizedAffinity>
-6.82974

> <CNNscore>
0.8281787038

> <CNNaffinity>
6.3750834465

> <CNN_VS>
5.2797083855

> <CNNaffinity_variance>
0.5003214478

$$$$
/media/chris/experiments/cd1a-new-docking/inputs/ligands/4x6d_2_ligand.pdb


 19 18  0  0  0  0  0  0  0  0999 V2000
  -48.4367   61.2275   64.8309 C   0  0  0  0  0  0  0  0  0  0  0  0
  -47.0792   60.8176   65.3850 C   0  0  0  0  0  0  0  0  0  0  0  0
  -47.1581   59.5776   66.2594 C   0  0  0  0  0  0  0  0  0  0  0  0
  -45.8809   59.4248   67.0689 C   0  0  0  0  0  0  0  0  0  0  0  0
  -44.7134   59.2357   66.1171 C   0  0  0  0  0  0  0  0  0  0  0  0
  -43.5015   60.0490   66.5434 C   0  0  0  0  0  0  0  0  0  0  0  0
  -42.2810   59.1626   66.5281 C   0  0  0  0  0  0  0  0  0  0  0  0
  -41.1445   59.6629   66.6375 O   0  0  0  0  0  0  0  0  0  0  0  0
  -42.3822   57.9238   66.4023 O   0  0  0  0  0  0  0  0  0  0  0  0
  -43.2278   57.5289   66.3187 H   0  0  0  0  0  0  0  0  0  0  0  0
  -49.2523   59.9553   64.6518 C   0  0  0  0  0  0  0  0  0  0  0  0
  -50.6631   60.2537   64.2043 C   0  0  0  0  0  0  0  0  0  0  0  0
  -51.1261   59.7794   62.8905 C   0  0  0  0  0  0  0  0  0  0  0  0
  -50.1212   59.1981   61.9279 C   0  0  0  0  0  0  0  0  0  0  0  0
  -50.7162   58.0117   61.1775 C   0  0  0  0  0  0  0  0  0  0  0  0
  -50.2743   58.0344   59.7143 C   0  0  0  0  0  0  0  0  0  0  0  0
  -48.8713   57.4557   59.5381 C   0  0  0  0  0  0  0  0  0  0  0  0
  -48.3272   57.6979   58.1279 C   0  0  0  0  0  0  0  0  0  0  0  0
  -47.0168   58.4807   58.1227 C   0  0  0  0  0  0  0  0  0  0  0  0
  7  8  2  0  0  0
  7  6  1  0  0  0
  7  9  1  0  0  0
  6  5  1  0  0  0
  9 10  1  0  0  0
  5  4  1  0  0  0
  4  3  1  0  0  0
  3  2  1  0  0  0
  2  1  1  0  0  0
  1 11  1  0  0  0
 11 12  1  0  0  0
 12 13  2  0  0  0
 13 14  1  0  0  0
 14 15  1  0  0  0
 15 16  1  0  0  0
 16 17  1  0  0  0
 17 18  1  0  0  0
 18 19  1  0  0  0
M  END
> <minimizedAffinity>
-7.01501

> <CNNscore>
0.8154119253

> <CNNaffinity>
6.5158386230

> <CNN_VS>
5.3130927086

> <CNNaffinity_variance>
0.6098011732

$$$$
/media/chris/experiments/cd1a-new-docking/inputs/ligands/4x6d_2_ligand.pdb


 19 18  0  0  0  0  0  0  0  0999 V2000
  -49.1773   60.2250   65.9972 C   0  0  0  0  0  0  0  0  0  0  0  0
  -47.8539   59.4870   66.1455 C   0  0  0  0  0  0  0  0  0  0  0  0
  -47.7467   58.2918   65.2137 C   0  0  0  0  0  0  0  0  0  0  0  0
  -47.0494   57.1392   65.9174 C   0  0  0  0  0  0  0  0  0  0  0  0
  -45.5902   57.5006   66.1286 C   0  0  0  0  0  0  0  0  0  0  0  0
  -44.8638   57.7062   64.8088 C   0  0  0  0  0  0  0  0  0  0  0  0
  -43.5254   58.3488   65.0759 C   0  0  0  0  0  0  0  0  0  0  0  0
  -42.6974   57.7827   65.8159 O   0  0  0  0  0  0  0  0  0  0  0  0
  -43.2243   59.4511   64.5707 O   0  0  0  0  0  0  0  0  0  0  0  0
  -43.8334   59.8923   64.0117 H   0  0  0  0  0  0  0  0  0  0  0  0
  -50.0754   59.3660   65.1189 C   0  0  0  0  0  0  0  0  0  0  0  0
  -50.8293   60.1966   64.1084 C   0  0  0  0  0  0  0  0  0  0  0  0
  -50.9692   59.7117   62.7260 C   0  0  0  0  0  0  0  0  0  0  0  0
  -50.1738   58.5067   62.2905 C   0  0  0  0  0  0  0  0  0  0  0  0
  -50.9185   57.7301   61.2101 C   0  0  0  0  0  0  0  0  0  0  0  0
  -50.2593   57.9512   59.8489 C   0  0  0  0  0  0  0  0  0  0  0  0
  -48.7435   58.0993   59.9718 C   0  0  0  0  0  0  0  0  0  0  0  0
  -48.0522   58.0429   58.6072 C   0  0  0  0  0  0  0  0  0  0  0  0
  -46.5294   58.0326   58.7124 C   0  0  0  0  0  0  0  0  0  0  0  0
  7  8  2  0  0  0
  7  6  1  0  0  0
  7  9  1  0  0  0
  6  5  1  0  0  0
  9 10  1  0  0  0
  5  4  1  0  0  0
  4  3  1  0  0  0
  3  2  1  0  0  0
  2  1  1  0  0  0
  1 11  1  0  0  0
 11 12  1  0  0  0
 12 13  2  0  0  0
 13 14  1  0  0  0
 14 15  1  0  0  0
 15 16  1  0  0  0
 16 17  1  0  0  0
 17 18  1  0  0  0
 18 19  1  0  0  0
M  END
> <minimizedAffinity>
-7.11022

> <CNNscore>
0.7894645929

> <CNNaffinity>
6.5173835754

> <CNN_VS>
5.1452436447

> <CNNaffinity_variance>
0.4473565519

$$$$
/media/chris/experiments/cd1a-new-docking/inputs/ligands/4x6d_2_ligand.pdb


 19 18  0  0  0  0  0  0  0  0999 V2000
  -46.1721   58.5649   64.9995 C   0  0  0  0  0  0  0  0  0  0  0  0
  -44.6641   58.7676   64.9470 C   0  0  0  0  0  0  0  0  0  0  0  0
  -43.8960   57.5464   65.4233 C   0  0  0  0  0  0  0  0  0  0  0  0
  -42.6187   57.9723   66.1281 C   0  0  0  0  0  0  0  0  0  0  0  0
  -42.5825   59.4877   66.2102 C   0  0  0  0  0  0  0  0  0  0  0  0
  -41.1602   60.0216   66.1466 C   0  0  0  0  0  0  0  0  0  0  0  0
  -41.1682   61.3703   65.4709 C   0  0  0  0  0  0  0  0  0  0  0  0
  -41.7020   61.5054   64.3525 O   0  0  0  0  0  0  0  0  0  0  0  0
  -40.6420   62.3672   66.0094 O   0  0  0  0  0  0  0  0  0  0  0  0
  -40.2356   62.2859   66.8498 H   0  0  0  0  0  0  0  0  0  0  0  0
  -46.7355   59.6213   65.9388 C   0  0  0  0  0  0  0  0  0  0  0  0
  -47.0617   60.9021   65.2089 C   0  0  0  0  0  0  0  0  0  0  0  0
  -48.4634   61.3324   65.0839 C   0  0  0  0  0  0  0  0  0  0  0  0
  -49.5591   60.3804   65.4928 C   0  0  0  0  0  0  0  0  0  0  0  0
  -50.4804   60.0800   64.3156 C   0  0  0  0  0  0  0  0  0  0  0  0
  -49.9429   58.8971   63.5103 C   0  0  0  0  0  0  0  0  0  0  0  0
  -50.1116   59.1128   62.0071 C   0  0  0  0  0  0  0  0  0  0  0  0
  -50.7809   57.9140   61.3302 C   0  0  0  0  0  0  0  0  0  0  0  0
  -50.4703   57.8240   59.8384 C   0  0  0  0  0  0  0  0  0  0  0  0
  7  8  2  0  0  0
  7  6  1  0  0  0
  7  9  1  0  0  0
  6  5  1  0  0  0
  9 10  1  0  0  0
  5  4  1  0  0  0
  4  3  1  0  0  0
  3  2  1  0  0  0
  2  1  1  0  0  0
  1 11  1  0  0  0
 11 12  1  0  0  0
 12 13  2  0  0  0
 13 14  1  0  0  0
 14 15  1  0  0  0
 15 16  1  0  0  0
 16 17  1  0  0  0
 17 18  1  0  0  0
 18 19  1  0  0  0
M  END
> <minimizedAffinity>
-6.71085

> <CNNscore>
0.7844812274

> <CNNaffinity>
6.1692724228

> <CNN_VS>
4.8396782875

> <CNNaffinity_variance>
0.4123484492

$$$$
/media/chris/experiments/cd1a-new-docking/inputs/ligands/4x6d_2_ligand.pdb


 19 18  0  0  0  0  0  0  0  0999 V2000
  -45.9977   59.7102   65.4703 C   0  0  0  0  0  0  0  0  0  0  0  0
  -45.8947   58.2431   65.8637 C   0  0  0  0  0  0  0  0  0  0  0  0
  -44.7186   57.5447   65.2023 C   0  0  0  0  0  0  0  0  0  0  0  0
  -43.6490   58.5580   64.8297 C   0  0  0  0  0  0  0  0  0  0  0  0
  -42.3290   58.1312   65.4461 C   0  0  0  0  0  0  0  0  0  0  0  0
  -42.0442   58.8768   66.7402 C   0  0  0  0  0  0  0  0  0  0  0  0
  -41.3295   60.1663   66.4208 C   0  0  0  0  0  0  0  0  0  0  0  0
  -41.8786   61.2600   66.6582 O   0  0  0  0  0  0  0  0  0  0  0  0
  -40.1879   60.1652   65.9133 O   0  0  0  0  0  0  0  0  0  0  0  0
  -39.7587   59.3533   65.7274 H   0  0  0  0  0  0  0  0  0  0  0  0
  -47.4622   59.9932   65.1686 C   0  0  0  0  0  0  0  0  0  0  0  0
  -48.3151   58.7577   65.3287 C   0  0  0  0  0  0  0  0  0  0  0  0
  -49.5342   58.6043   64.5189 C   0  0  0  0  0  0  0  0  0  0  0  0
  -50.0251   59.7774   63.7082 C   0  0  0  0  0  0  0  0  0  0  0  0
  -50.8071   59.3014   62.4888 C   0  0  0  0  0  0  0  0  0  0  0  0
  -50.2087   58.0023   61.9495 C   0  0  0  0  0  0  0  0  0  0  0  0
  -50.9441   57.5161   60.7016 C   0  0  0  0  0  0  0  0  0  0  0  0
  -50.3392   58.0959   59.4205 C   0  0  0  0  0  0  0  0  0  0  0  0
  -48.8132   58.0604   59.4148 C   0  0  0  0  0  0  0  0  0  0  0  0
  7  8  2  0  0  0
  7  6  1  0  0  0
  7  9  1  0  0  0
  6  5  1  0  0  0
  9 10  1  0  0  0
  5  4  1  0  0  0
  4  3  1  0  0  0
  3  2  1  0  0  0
  2  1  1  0  0  0
  1 11  1  0  0  0
 11 12  1  0  0  0
 12 13  2  0  0  0
 13 14  1  0  0  0
 14 15  1  0  0  0
 15 16  1  0  0  0
 16 17  1  0  0  0
 17 18  1  0  0  0
 18 19  1  0  0  0
M  END
> <minimizedAffinity>
-6.66520

> <CNNscore>
0.7207909822

> <CNNaffinity>
6.2829885483

> <CNN_VS>
4.5287213326

> <CNNaffinity_variance>
0.2977466881

$$$$
/media/chris/experiments/cd1a-new-docking/inputs/ligands/4x6d_2_ligand.pdb


 19 18  0  0  0  0  0  0  0  0999 V2000
  -48.1249   58.9607   64.5384 C   0  0  0  0  0  0  0  0  0  0  0  0
  -47.5272   58.6060   65.8930 C   0  0  0  0  0  0  0  0  0  0  0  0
  -46.6785   59.7282   66.4662 C   0  0  0  0  0  0  0  0  0  0  0  0
  -46.1056   60.5781   65.3440 C   0  0  0  0  0  0  0  0  0  0  0  0
  -44.6092   60.3379   65.2580 C   0  0  0  0  0  0  0  0  0  0  0  0
  -44.1477   59.2924   66.2609 C   0  0  0  0  0  0  0  0  0  0  0  0
  -43.4936   58.1522   65.5210 C   0  0  0  0  0  0  0  0  0  0  0  0
  -44.1727   57.1720   65.1578 O   0  0  0  0  0  0  0  0  0  0  0  0
  -42.2710   58.1640   65.2639 O   0  0  0  0  0  0  0  0  0  0  0  0
  -41.7436   58.8918   65.5287 H   0  0  0  0  0  0  0  0  0  0  0  0
  -49.6191   58.6839   64.6196 C   0  0  0  0  0  0  0  0  0  0  0  0
  -50.4128   59.6430   63.7654 C   0  0  0  0  0  0  0  0  0  0  0  0
  -50.8031   59.2519   62.4015 C   0  0  0  0  0  0  0  0  0  0  0  0
  -50.2182   57.9958   61.8062 C   0  0  0  0  0  0  0  0  0  0  0  0
  -50.8836   57.6695   60.4736 C   0  0  0  0  0  0  0  0  0  0  0  0
  -49.8375   57.6025   59.3612 C   0  0  0  0  0  0  0  0  0  0  0  0
  -48.4574   58.0330   59.8558 C   0  0  0  0  0  0  0  0  0  0  0  0
  -47.3388   57.5149   58.9483 C   0  0  0  0  0  0  0  0  0  0  0  0
  -46.8959   58.5393   57.9069 C   0  0  0  0  0  0  0  0  0  0  0  0
  7  8  2  0  0  0
  7  6  1  0  0  0
  7  9  1  0  0  0
  6  5  1  0  0  0
  9 10  1  0  0  0
  5  4  1  0  0  0
  4  3  1  0  0  0
  3  2  1  0  0  0
  2  1  1  0  0  0
  1 11  1  0  0  0
 11 12  1  0  0  0
 12 13  2  0  0  0
 13 14  1  0  0  0
 14 15  1  0  0  0
 15 16  1  0  0  0
 16 17  1  0  0  0
 17 18  1  0  0  0
 18 19  1  0  0  0
M  END
> <minimizedAffinity>
-7.11941

> <CNNscore>
0.6807662845

> <CNNaffinity>
6.2585635185

> <CNN_VS>
4.2606191635

> <CNNaffinity_variance>
0.2472518235

$$$$
/media/chris/experiments/cd1a-new-docking/inputs/ligands/4x6d_2_ligand.pdb


 19 18  0  0  0  0  0  0  0  0999 V2000
  -50.6098   60.0691   64.0323 C   0  0  0  0  0  0  0  0  0  0  0  0
  -50.0375   58.6985   63.6980 C   0  0  0  0  0  0  0  0  0  0  0  0
  -49.5634   58.6015   62.2579 C   0  0  0  0  0  0  0  0  0  0  0  0
  -50.6759   58.0608   61.3749 C   0  0  0  0  0  0  0  0  0  0  0  0
  -50.1845   58.0072   59.9396 C   0  0  0  0  0  0  0  0  0  0  0  0
  -48.7196   57.6078   59.8601 C   0  0  0  0  0  0  0  0  0  0  0  0
  -48.4903   56.8180   58.5954 C   0  0  0  0  0  0  0  0  0  0  0  0
  -47.9178   55.7118   58.6451 O   0  0  0  0  0  0  0  0  0  0  0  0
  -48.8608   57.2531   57.4845 O   0  0  0  0  0  0  0  0  0  0  0  0
  -49.2928   58.0825   57.4265 H   0  0  0  0  0  0  0  0  0  0  0  0
  -49.8423   60.5956   65.2363 C   0  0  0  0  0  0  0  0  0  0  0  0
  -48.6183   61.3762   64.8216 C   0  0  0  0  0  0  0  0  0  0  0  0
  -47.2897   60.9498   65.2891 C   0  0  0  0  0  0  0  0  0  0  0  0
  -47.1963   59.8784   66.3463 C   0  0  0  0  0  0  0  0  0  0  0  0
  -45.7404   59.5908   66.6963 C   0  0  0  0  0  0  0  0  0  0  0  0
  -44.8988   59.4932   65.4240 C   0  0  0  0  0  0  0  0  0  0  0  0
  -43.6386   60.3527   65.5120 C   0  0  0  0  0  0  0  0  0  0  0  0
  -42.9986   60.2863   66.9010 C   0  0  0  0  0  0  0  0  0  0  0  0
  -41.7926   59.3522   66.9556 C   0  0  0  0  0  0  0  0  0  0  0  0
  7  8  2  0  0  0
  7  6  1  0  0  0
  7  9  1  0  0  0
  6  5  1  0  0  0
  9 10  1  0  0  0
  5  4  1  0  0  0
  4  3  1  0  0  0
  3  2  1  0  0  0
  2  1  1  0  0  0
  1 11  1  0  0  0
 11 12  1  0  0  0
 12 13  2  0  0  0
 13 14  1  0  0  0
 14 15  1  0  0  0
 15 16  1  0  0  0
 16 17  1  0  0  0
 17 18  1  0  0  0
 18 19  1  0  0  0
M  END
> <minimizedAffinity>
-6.98509

> <CNNscore>
0.6600434780

> <CNNaffinity>
6.2061719894

> <CNN_VS>
4.0963435173

> <CNNaffinity_variance>
0.3922074735

$$$$
/media/chris/experiments/cd1a-new-docking/inputs/ligands/4x6d_2_ligand.pdb


 19 18  0  0  0  0  0  0  0  0999 V2000
  -41.8149   59.1139   66.7451 C   0  0  0  0  0  0  0  0  0  0  0  0
  -41.3979   58.7778   65.3200 C   0  0  0  0  0  0  0  0  0  0  0  0
  -39.9495   59.1389   65.0372 C   0  0  0  0  0  0  0  0  0  0  0  0
  -39.2794   58.0322   64.2396 C   0  0  0  0  0  0  0  0  0  0  0  0
  -38.6975   58.6235   62.9682 C   0  0  0  0  0  0  0  0  0  0  0  0
  -37.7425   57.6585   62.2837 C   0  0  0  0  0  0  0  0  0  0  0  0
  -36.3511   58.2409   62.3057 C   0  0  0  0  0  0  0  0  0  0  0  0
  -36.1790   59.4557   62.0858 O   0  0  0  0  0  0  0  0  0  0  0  0
  -35.3535   57.5253   62.5373 O   0  0  0  0  0  0  0  0  0  0  0  0
  -35.4623   56.6099   62.7049 H   0  0  0  0  0  0  0  0  0  0  0  0
  -42.6773   60.3659   66.6781 C   0  0  0  0  0  0  0  0  0  0  0  0
  -43.5277   60.3931   65.4308 C   0  0  0  0  0  0  0  0  0  0  0  0
  -44.9596   60.0650   65.5184 C   0  0  0  0  0  0  0  0  0  0  0  0
  -45.5015   59.4967   66.8059 C   0  0  0  0  0  0  0  0  0  0  0  0
  -47.0149   59.3282   66.7268 C   0  0  0  0  0  0  0  0  0  0  0  0
  -47.3712   58.1710   65.7938 C   0  0  0  0  0  0  0  0  0  0  0  0
  -48.4507   58.5673   64.7878 C   0  0  0  0  0  0  0  0  0  0  0  0
  -49.8506   58.5214   65.4053 C   0  0  0  0  0  0  0  0  0  0  0  0
  -50.5050   59.8974   65.4973 C   0  0  0  0  0  0  0  0  0  0  0  0
  7  8  2  0  0  0
  7  6  1  0  0  0
  7  9  1  0  0  0
  6  5  1  0  0  0
  9 10  1  0  0  0
  5  4  1  0  0  0
  4  3  1  0  0  0
  3  2  1  0  0  0
  2  1  1  0  0  0
  1 11  1  0  0  0
 11 12  1  0  0  0
 12 13  2  0  0  0
 13 14  1  0  0  0
 14 15  1  0  0  0
 15 16  1  0  0  0
 16 17  1  0  0  0
 17 18  1  0  0  0
 18 19  1  0  0  0
M  END
> <minimizedAffinity>
-6.51203

> <CNNscore>
0.6410988569

> <CNNaffinity>
5.9076223373

> <CNN_VS>
3.7873699665

> <CNNaffinity_variance>
0.1545511633

$$$$
/media/chris/experiments/cd1a-new-docking/inputs/ligands/4x6d_2_ligand.pdb


 19 18  0  0  0  0  0  0  0  0999 V2000
  -48.5450   58.4764   63.7890 C   0  0  0  0  0  0  0  0  0  0  0  0
  -48.8506   58.6264   65.2729 C   0  0  0  0  0  0  0  0  0  0  0  0
  -47.9608   57.7532   66.1413 C   0  0  0  0  0  0  0  0  0  0  0  0
  -46.6561   57.4546   65.4214 C   0  0  0  0  0  0  0  0  0  0  0  0
  -45.5116   58.0882   66.1916 C   0  0  0  0  0  0  0  0  0  0  0  0
  -44.9817   59.3303   65.4930 C   0  0  0  0  0  0  0  0  0  0  0  0
  -43.5494   59.5581   65.9081 C   0  0  0  0  0  0  0  0  0  0  0  0
  -43.2891   60.3132   66.8652 O   0  0  0  0  0  0  0  0  0  0  0  0
  -42.6051   59.0050   65.3056 O   0  0  0  0  0  0  0  0  0  0  0  0
  -42.7804   58.4340   64.5836 H   0  0  0  0  0  0  0  0  0  0  0  0
  -49.5981   59.2708   63.0303 C   0  0  0  0  0  0  0  0  0  0  0  0
  -50.6019   58.3671   62.3554 C   0  0  0  0  0  0  0  0  0  0  0  0
  -50.3791   57.9416   60.9644 C   0  0  0  0  0  0  0  0  0  0  0  0
  -49.2725   58.5894   60.1707 C   0  0  0  0  0  0  0  0  0  0  0  0
  -48.2232   57.5593   59.7673 C   0  0  0  0  0  0  0  0  0  0  0  0
  -47.1266   58.2191   58.9315 C   0  0  0  0  0  0  0  0  0  0  0  0
  -47.3933   58.0759   57.4339 C   0  0  0  0  0  0  0  0  0  0  0  0
  -48.4304   56.9889   57.1404 C   0  0  0  0  0  0  0  0  0  0  0  0
  -47.8336   55.5840   57.1349 C   0  0  0  0  0  0  0  0  0  0  0  0
  7  8  2  0  0  0
  7  6  1  0  0  0
  7  9  1  0  0  0
  6  5  1  0  0  0
  9 10  1  0  0  0
  5  4  1  0  0  0
  4  3  1  0  0  0
  3  2  1  0  0  0
  2  1  1  0  0  0
  1 11  1  0  0  0
 11 12  1  0  0  0
 12 13  2  0  0  0
 13 14  1  0  0  0
 14 15  1  0  0  0
 15 16  1  0  0  0
 16 17  1  0  0  0
 17 18  1  0  0  0
 18 19  1  0  0  0
M  END
> <minimizedAffinity>
-6.25737

> <CNNscore>
0.6354779601

> <CNNaffinity>
6.3513336182

> <CNN_VS>
4.0361323357

> <CNNaffinity_variance>
0.3868072629

$$$$
