/media/chris/experiments/cd1a-new-docking/inputs/ligands/4x6d_2_ligand.pdb


 19 18  0  0  0  0  0  0  0  0999 V2000
  -44.5375   57.2410   65.0112 C   0  0  0  0  0  0  0  0  0  0  0  0
  -43.5343   57.9820   65.8841 C   0  0  0  0  0  0  0  0  0  0  0  0
  -43.7275   59.4884   65.8421 C   0  0  0  0  0  0  0  0  0  0  0  0
  -42.7504   60.1689   66.7867 C   0  0  0  0  0  0  0  0  0  0  0  0
  -41.3697   59.5719   66.5821 C   0  0  0  0  0  0  0  0  0  0  0  0
  -40.6865   60.1416   65.3491 C   0  0  0  0  0  0  0  0  0  0  0  0
  -39.9390   61.3945   65.7326 C   0  0  0  0  0  0  0  0  0  0  0  0
  -38.6959   61.3770   65.8237 O   0  0  0  0  0  0  0  0  0  0  0  0
  -40.5435   62.4621   65.9686 O   0  0  0  0  0  0  0  0  0  0  0  0
  -41.4777   62.4954   65.9054 H   0  0  0  0  0  0  0  0  0  0  0  0
  -45.7584   58.1381   64.8682 C   0  0  0  0  0  0  0  0  0  0  0  0
  -46.9101   57.6547   65.7166 C   0  0  0  0  0  0  0  0  0  0  0  0
  -48.2903   57.8228   65.2348 C   0  0  0  0  0  0  0  0  0  0  0  0
  -48.5391   58.6680   64.0108 C   0  0  0  0  0  0  0  0  0  0  0  0
  -50.0174   58.6552   63.6374 C   0  0  0  0  0  0  0  0  0  0  0  0
  -50.2094   59.1822   62.2155 C   0  0  0  0  0  0  0  0  0  0  0  0
  -50.2743   58.0465   61.1952 C   0  0  0  0  0  0  0  0  0  0  0  0
  -49.6168   58.4337   59.8681 C   0  0  0  0  0  0  0  0  0  0  0  0
  -48.2337   57.8135   59.6870 C   0  0  0  0  0  0  0  0  0  0  0  0
  7  8  2  0  0  0
  7  6  1  0  0  0
  7  9  1  0  0  0
  6  5  1  0  0  0
  9 10  1  0  0  0
  5  4  1  0  0  0
  4  3  1  0  0  0
  3  2  1  0  0  0
  2  1  1  0  0  0
  1 11  1  0  0  0
 11 12  1  0  0  0
 12 13  2  0  0  0
 13 14  1  0  0  0
 14 15  1  0  0  0
 15 16  1  0  0  0
 16 17  1  0  0  0
 17 18  1  0  0  0
 18 19  1  0  0  0
M  END
> <minimizedAffinity>
-6.85019

> <CNNscore>
0.8579257131

> <CNNaffinity>
6.3769788742

> <CNN_VS>
5.4709739685

> <CNNaffinity_variance>
0.4063774943

$$$$
/media/chris/experiments/cd1a-new-docking/inputs/ligands/4x6d_2_ligand.pdb


 19 18  0  0  0  0  0  0  0  0999 V2000
  -46.7174   60.8531   64.9451 C   0  0  0  0  0  0  0  0  0  0  0  0
  -45.8184   60.0558   65.8800 C   0  0  0  0  0  0  0  0  0  0  0  0
  -44.5930   59.4998   65.1747 C   0  0  0  0  0  0  0  0  0  0  0  0
  -43.5569   60.5950   64.9818 C   0  0  0  0  0  0  0  0  0  0  0  0
  -42.6630   60.6497   66.2076 C   0  0  0  0  0  0  0  0  0  0  0  0
  -41.2592   60.1509   65.9041 C   0  0  0  0  0  0  0  0  0  0  0  0
  -40.3361   61.3342   65.7520 C   0  0  0  0  0  0  0  0  0  0  0  0
  -39.1559   61.1630   65.3893 O   0  0  0  0  0  0  0  0  0  0  0  0
  -40.7293   62.4963   65.9883 O   0  0  0  0  0  0  0  0  0  0  0  0
  -41.6128   62.6454   66.2620 H   0  0  0  0  0  0  0  0  0  0  0  0
  -48.1289   60.3070   65.1042 C   0  0  0  0  0  0  0  0  0  0  0  0
  -48.2010   58.8369   64.7675 C   0  0  0  0  0  0  0  0  0  0  0  0
  -49.0240   58.3894   63.6327 C   0  0  0  0  0  0  0  0  0  0  0  0
  -49.9493   59.3767   62.9668 C   0  0  0  0  0  0  0  0  0  0  0  0
  -50.4579   58.8284   61.6380 C   0  0  0  0  0  0  0  0  0  0  0  0
  -49.4247   57.8840   61.0241 C   0  0  0  0  0  0  0  0  0  0  0  0
  -48.8811   58.4229   59.7016 C   0  0  0  0  0  0  0  0  0  0  0  0
  -47.6459   57.6486   59.2345 C   0  0  0  0  0  0  0  0  0  0  0  0
  -46.9169   58.3326   58.0810 C   0  0  0  0  0  0  0  0  0  0  0  0
  7  8  2  0  0  0
  7  6  1  0  0  0
  7  9  1  0  0  0
  6  5  1  0  0  0
  9 10  1  0  0  0
  5  4  1  0  0  0
  4  3  1  0  0  0
  3  2  1  0  0  0
  2  1  1  0  0  0
  1 11  1  0  0  0
 11 12  1  0  0  0
 12 13  2  0  0  0
 13 14  1  0  0  0
 14 15  1  0  0  0
 15 16  1  0  0  0
 16 17  1  0  0  0
 17 18  1  0  0  0
 18 19  1  0  0  0
M  END
> <minimizedAffinity>
-6.74292

> <CNNscore>
0.8427507877

> <CNNaffinity>
6.4891052246

> <CNN_VS>
5.4686985016

> <CNNaffinity_variance>
0.5638257265

$$$$
/media/chris/experiments/cd1a-new-docking/inputs/ligands/4x6d_2_ligand.pdb


 19 18  0  0  0  0  0  0  0  0999 V2000
  -48.5826   58.9934   65.5607 C   0  0  0  0  0  0  0  0  0  0  0  0
  -47.9819   60.2994   65.0595 C   0  0  0  0  0  0  0  0  0  0  0  0
  -46.6664   60.6344   65.7418 C   0  0  0  0  0  0  0  0  0  0  0  0
  -45.5367   59.8224   65.1298 C   0  0  0  0  0  0  0  0  0  0  0  0
  -44.3734   59.7833   66.1043 C   0  0  0  0  0  0  0  0  0  0  0  0
  -43.0959   60.3205   65.4787 C   0  0  0  0  0  0  0  0  0  0  0  0
  -42.2702   60.9975   66.5443 C   0  0  0  0  0  0  0  0  0  0  0  0
  -41.2544   61.6472   66.2285 O   0  0  0  0  0  0  0  0  0  0  0  0
  -42.5810   60.9180   67.7518 O   0  0  0  0  0  0  0  0  0  0  0  0
  -43.3410   60.4342   68.0091 H   0  0  0  0  0  0  0  0  0  0  0  0
  -49.4778   58.4560   64.4537 C   0  0  0  0  0  0  0  0  0  0  0  0
  -50.4121   59.5177   63.9249 C   0  0  0  0  0  0  0  0  0  0  0  0
  -50.6506   59.6222   62.4767 C   0  0  0  0  0  0  0  0  0  0  0  0
  -49.7931   58.8148   61.5348 C   0  0  0  0  0  0  0  0  0  0  0  0
  -50.6587   57.9669   60.6091 C   0  0  0  0  0  0  0  0  0  0  0  0
  -49.9060   57.6579   59.3152 C   0  0  0  0  0  0  0  0  0  0  0  0
  -48.4103   57.9406   59.4495 C   0  0  0  0  0  0  0  0  0  0  0  0
  -47.6386   57.5400   58.1896 C   0  0  0  0  0  0  0  0  0  0  0  0
  -46.7992   58.6802   57.6192 C   0  0  0  0  0  0  0  0  0  0  0  0
  7  8  2  0  0  0
  7  6  1  0  0  0
  7  9  1  0  0  0
  6  5  1  0  0  0
  9 10  1  0  0  0
  5  4  1  0  0  0
  4  3  1  0  0  0
  3  2  1  0  0  0
  2  1  1  0  0  0
  1 11  1  0  0  0
 11 12  1  0  0  0
 12 13  2  0  0  0
 13 14  1  0  0  0
 14 15  1  0  0  0
 15 16  1  0  0  0
 16 17  1  0  0  0
 17 18  1  0  0  0
 18 19  1  0  0  0
M  END
> <minimizedAffinity>
-6.97475

> <CNNscore>
0.7693588138

> <CNNaffinity>
6.4633855820

> <CNN_VS>
4.9726624489

> <CNNaffinity_variance>
0.6210085750

$$$$
/media/chris/experiments/cd1a-new-docking/inputs/ligands/4x6d_2_ligand.pdb


 19 18  0  0  0  0  0  0  0  0999 V2000
  -43.7675   60.0122   65.1882 C   0  0  0  0  0  0  0  0  0  0  0  0
  -43.0289   59.9855   66.5192 C   0  0  0  0  0  0  0  0  0  0  0  0
  -41.5398   59.7339   66.3533 C   0  0  0  0  0  0  0  0  0  0  0  0
  -41.3018   58.6837   65.2806 C   0  0  0  0  0  0  0  0  0  0  0  0
  -40.1497   59.1313   64.3992 C   0  0  0  0  0  0  0  0  0  0  0  0
  -39.0496   58.0838   64.3347 C   0  0  0  0  0  0  0  0  0  0  0  0
  -38.1306   58.4022   63.1816 C   0  0  0  0  0  0  0  0  0  0  0  0
  -38.0482   57.6203   62.2144 O   0  0  0  0  0  0  0  0  0  0  0  0
  -37.4376   59.4418   63.1743 O   0  0  0  0  0  0  0  0  0  0  0  0
  -37.4857   60.0419   63.8922 H   0  0  0  0  0  0  0  0  0  0  0  0
  -45.2420   60.2288   65.4963 C   0  0  0  0  0  0  0  0  0  0  0  0
  -45.6847   59.4323   66.7001 C   0  0  0  0  0  0  0  0  0  0  0  0
  -47.1171   59.3363   67.0232 C   0  0  0  0  0  0  0  0  0  0  0  0
  -48.0942   60.2112   66.2788 C   0  0  0  0  0  0  0  0  0  0  0  0
  -49.2700   59.3891   65.7624 C   0  0  0  0  0  0  0  0  0  0  0  0
  -50.4336   60.3063   65.3868 C   0  0  0  0  0  0  0  0  0  0  0  0
  -50.9048   60.0645   63.9535 C   0  0  0  0  0  0  0  0  0  0  0  0
  -50.1139   58.9435   63.2744 C   0  0  0  0  0  0  0  0  0  0  0  0
  -50.5791   58.6686   61.8468 C   0  0  0  0  0  0  0  0  0  0  0  0
  7  8  2  0  0  0
  7  6  1  0  0  0
  7  9  1  0  0  0
  6  5  1  0  0  0
  9 10  1  0  0  0
  5  4  1  0  0  0
  4  3  1  0  0  0
  3  2  1  0  0  0
  2  1  1  0  0  0
  1 11  1  0  0  0
 11 12  1  0  0  0
 12 13  2  0  0  0
 13 14  1  0  0  0
 14 15  1  0  0  0
 15 16  1  0  0  0
 16 17  1  0  0  0
 17 18  1  0  0  0
 18 19  1  0  0  0
M  END
> <minimizedAffinity>
-6.38610

> <CNNscore>
0.7437497973

> <CNNaffinity>
6.1601228714

> <CNN_VS>
4.5815901756

> <CNNaffinity_variance>
0.3303189874

$$$$
/media/chris/experiments/cd1a-new-docking/inputs/ligands/4x6d_2_ligand.pdb


 19 18  0  0  0  0  0  0  0  0999 V2000
  -41.4589   59.4759   66.6807 C   0  0  0  0  0  0  0  0  0  0  0  0
  -41.3785   59.0472   65.2222 C   0  0  0  0  0  0  0  0  0  0  0  0
  -40.1406   59.5855   64.5249 C   0  0  0  0  0  0  0  0  0  0  0  0
  -39.3082   58.4390   63.9750 C   0  0  0  0  0  0  0  0  0  0  0  0
  -38.5825   58.9103   62.7277 C   0  0  0  0  0  0  0  0  0  0  0  0
  -39.0175   60.3081   62.3170 C   0  0  0  0  0  0  0  0  0  0  0  0
  -39.0831   60.3833   60.8118 C   0  0  0  0  0  0  0  0  0  0  0  0
  -39.9209   61.1226   60.2593 O   0  0  0  0  0  0  0  0  0  0  0  0
  -38.3112   59.7104   60.0960 O   0  0  0  0  0  0  0  0  0  0  0  0
  -37.6746   59.1489   60.4925 H   0  0  0  0  0  0  0  0  0  0  0  0
  -42.7709   60.2263   66.8573 C   0  0  0  0  0  0  0  0  0  0  0  0
  -43.5767   60.2520   65.5807 C   0  0  0  0  0  0  0  0  0  0  0  0
  -45.0294   60.0231   65.6318 C   0  0  0  0  0  0  0  0  0  0  0  0
  -45.6499   59.5515   66.9229 C   0  0  0  0  0  0  0  0  0  0  0  0
  -47.1339   59.2573   66.7328 C   0  0  0  0  0  0  0  0  0  0  0  0
  -47.8466   60.4793   66.1539 C   0  0  0  0  0  0  0  0  0  0  0  0
  -49.3371   60.2175   65.9426 C   0  0  0  0  0  0  0  0  0  0  0  0
  -49.5967   58.8159   65.3845 C   0  0  0  0  0  0  0  0  0  0  0  0
  -49.4390   58.7415   63.8680 C   0  0  0  0  0  0  0  0  0  0  0  0
  7  8  2  0  0  0
  7  6  1  0  0  0
  7  9  1  0  0  0
  6  5  1  0  0  0
  9 10  1  0  0  0
  5  4  1  0  0  0
  4  3  1  0  0  0
  3  2  1  0  0  0
  2  1  1  0  0  0
  1 11  1  0  0  0
 11 12  1  0  0  0
 12 13  2  0  0  0
 13 14  1  0  0  0
 14 15  1  0  0  0
 15 16  1  0  0  0
 16 17  1  0  0  0
 17 18  1  0  0  0
 18 19  1  0  0  0
M  END
> <minimizedAffinity>
-6.58996

> <CNNscore>
0.6854125857

> <CNNaffinity>
5.9575343132

> <CNN_VS>
4.0833687782

> <CNNaffinity_variance>
0.1541979462

$$$$
/media/chris/experiments/cd1a-new-docking/inputs/ligands/4x6d_2_ligand.pdb


 19 18  0  0  0  0  0  0  0  0999 V2000
  -38.1008   58.4167   62.0249 C   0  0  0  0  0  0  0  0  0  0  0  0
  -37.2487   57.2321   61.5906 C   0  0  0  0  0  0  0  0  0  0  0  0
  -35.7651   57.4686   61.8171 C   0  0  0  0  0  0  0  0  0  0  0  0
  -34.9467   56.6260   60.8525 C   0  0  0  0  0  0  0  0  0  0  0  0
  -35.7929   56.3116   59.6320 C   0  0  0  0  0  0  0  0  0  0  0  0
  -34.9826   56.3937   58.3481 C   0  0  0  0  0  0  0  0  0  0  0  0
  -34.4973   57.8095   58.1594 C   0  0  0  0  0  0  0  0  0  0  0  0
  -35.2946   58.7017   57.8102 O   0  0  0  0  0  0  0  0  0  0  0  0
  -33.2992   58.1128   58.3424 O   0  0  0  0  0  0  0  0  0  0  0  0
  -32.6846   57.4562   58.6052 H   0  0  0  0  0  0  0  0  0  0  0  0
  -38.7311   58.0517   63.3610 C   0  0  0  0  0  0  0  0  0  0  0  0
  -38.6341   59.1853   64.3535 C   0  0  0  0  0  0  0  0  0  0  0  0
  -39.7255   59.4065   65.3154 C   0  0  0  0  0  0  0  0  0  0  0  0
  -41.0129   58.6387   65.1490 C   0  0  0  0  0  0  0  0  0  0  0  0
  -41.9026   58.8044   66.3762 C   0  0  0  0  0  0  0  0  0  0  0  0
  -43.1311   59.6456   66.0304 C   0  0  0  0  0  0  0  0  0  0  0  0
  -44.0892   58.8948   65.1068 C   0  0  0  0  0  0  0  0  0  0  0  0
  -44.4814   57.5302   65.6790 C   0  0  0  0  0  0  0  0  0  0  0  0
  -45.9923   57.3187   65.7286 C   0  0  0  0  0  0  0  0  0  0  0  0
  7  8  2  0  0  0
  7  6  1  0  0  0
  7  9  1  0  0  0
  6  5  1  0  0  0
  9 10  1  0  0  0
  5  4  1  0  0  0
  4  3  1  0  0  0
  3  2  1  0  0  0
  2  1  1  0  0  0
  1 11  1  0  0  0
 11 12  1  0  0  0
 12 13  2  0  0  0
 13 14  1  0  0  0
 14 15  1  0  0  0
 15 16  1  0  0  0
 16 17  1  0  0  0
 17 18  1  0  0  0
 18 19  1  0  0  0
M  END
> <minimizedAffinity>
-6.37757

> <CNNscore>
0.6433188319

> <CNNaffinity>
5.5394563675

> <CNN_VS>
3.5636365414

> <CNNaffinity_variance>
0.0307343658

$$$$
/media/chris/experiments/cd1a-new-docking/inputs/ligands/4x6d_2_ligand.pdb


 19 18  0  0  0  0  0  0  0  0999 V2000
  -42.1777   58.1797   65.9056 C   0  0  0  0  0  0  0  0  0  0  0  0
  -41.3942   59.4182   66.3179 C   0  0  0  0  0  0  0  0  0  0  0  0
  -40.2473   59.7235   65.3695 C   0  0  0  0  0  0  0  0  0  0  0  0
  -39.8285   58.4633   64.6303 C   0  0  0  0  0  0  0  0  0  0  0  0
  -38.9902   58.8533   63.4262 C   0  0  0  0  0  0  0  0  0  0  0  0
  -38.1610   57.6859   62.9149 C   0  0  0  0  0  0  0  0  0  0  0  0
  -37.6123   58.0286   61.5522 C   0  0  0  0  0  0  0  0  0  0  0  0
  -36.8528   57.2324   60.9665 O   0  0  0  0  0  0  0  0  0  0  0  0
  -37.9005   59.1070   60.9909 O   0  0  0  0  0  0  0  0  0  0  0  0
  -38.4697   59.7184   61.4151 H   0  0  0  0  0  0  0  0  0  0  0  0
  -43.4230   58.6583   65.1735 C   0  0  0  0  0  0  0  0  0  0  0  0
  -44.4287   57.5464   64.9949 C   0  0  0  0  0  0  0  0  0  0  0  0
  -45.6899   57.5766   65.7523 C   0  0  0  0  0  0  0  0  0  0  0  0
  -45.8582   58.5958   66.8510 C   0  0  0  0  0  0  0  0  0  0  0  0
  -47.1794   59.3414   66.6979 C   0  0  0  0  0  0  0  0  0  0  0  0
  -47.0351   60.4718   65.6792 C   0  0  0  0  0  0  0  0  0  0  0  0
  -48.1168   60.4042   64.6021 C   0  0  0  0  0  0  0  0  0  0  0  0
  -49.3134   61.2979   64.9382 C   0  0  0  0  0  0  0  0  0  0  0  0
  -50.6304   60.5287   65.0009 C   0  0  0  0  0  0  0  0  0  0  0  0
  7  8  2  0  0  0
  7  6  1  0  0  0
  7  9  1  0  0  0
  6  5  1  0  0  0
  9 10  1  0  0  0
  5  4  1  0  0  0
  4  3  1  0  0  0
  3  2  1  0  0  0
  2  1  1  0  0  0
  1 11  1  0  0  0
 11 12  1  0  0  0
 12 13  2  0  0  0
 13 14  1  0  0  0
 14 15  1  0  0  0
 15 16  1  0  0  0
 16 17  1  0  0  0
 17 18  1  0  0  0
 18 19  1  0  0  0
M  END
> <minimizedAffinity>
-6.26364

> <CNNscore>
0.6333073378

> <CNNaffinity>
5.8910865784

> <CNN_VS>
3.7308683395

> <CNNaffinity_variance>
0.1612093896

$$$$
/media/chris/experiments/cd1a-new-docking/inputs/ligands/4x6d_2_ligand.pdb


 19 18  0  0  0  0  0  0  0  0999 V2000
  -39.2916   58.3766   64.2159 C   0  0  0  0  0  0  0  0  0  0  0  0
  -39.1469   59.4411   63.1372 C   0  0  0  0  0  0  0  0  0  0  0  0
  -38.3163   58.9649   61.9576 C   0  0  0  0  0  0  0  0  0  0  0  0
  -37.7211   57.5980   62.2532 C   0  0  0  0  0  0  0  0  0  0  0  0
  -36.7848   57.2126   61.1221 C   0  0  0  0  0  0  0  0  0  0  0  0
  -36.7352   58.2821   60.0425 C   0  0  0  0  0  0  0  0  0  0  0  0
  -35.8837   57.7907   58.8984 C   0  0  0  0  0  0  0  0  0  0  0  0
  -35.2607   58.6046   58.1890 O   0  0  0  0  0  0  0  0  0  0  0  0
  -35.7899   56.5723   58.6382 O   0  0  0  0  0  0  0  0  0  0  0  0
  -36.2505   55.9450   59.1599 H   0  0  0  0  0  0  0  0  0  0  0  0
  -40.3466   58.8695   65.1956 C   0  0  0  0  0  0  0  0  0  0  0  0
  -40.2834   60.3669   65.3789 C   0  0  0  0  0  0  0  0  0  0  0  0
  -41.3973   61.0676   66.0375 C   0  0  0  0  0  0  0  0  0  0  0  0
  -42.6719   60.3120   66.3181 C   0  0  0  0  0  0  0  0  0  0  0  0
  -43.6580   60.4701   65.1659 C   0  0  0  0  0  0  0  0  0  0  0  0
  -44.8925   59.6002   65.4016 C   0  0  0  0  0  0  0  0  0  0  0  0
  -45.2987   59.5818   66.8745 C   0  0  0  0  0  0  0  0  0  0  0  0
  -46.5214   58.6935   67.1181 C   0  0  0  0  0  0  0  0  0  0  0  0
  -46.4133   57.3331   66.4343 C   0  0  0  0  0  0  0  0  0  0  0  0
  7  8  2  0  0  0
  7  6  1  0  0  0
  7  9  1  0  0  0
  6  5  1  0  0  0
  9 10  1  0  0  0
  5  4  1  0  0  0
  4  3  1  0  0  0
  3  2  1  0  0  0
  2  1  1  0  0  0
  1 11  1  0  0  0
 11 12  1  0  0  0
 12 13  2  0  0  0
 13 14  1  0  0  0
 14 15  1  0  0  0
 15 16  1  0  0  0
 16 17  1  0  0  0
 17 18  1  0  0  0
 18 19  1  0  0  0
M  END
> <minimizedAffinity>
-6.24853

> <CNNscore>
0.6327707171

> <CNNaffinity>
5.7548561096

> <CNN_VS>
3.6415045261

> <CNNaffinity_variance>
0.3029142022

$$$$
/media/chris/experiments/cd1a-new-docking/inputs/ligands/4x6d_2_ligand.pdb


 19 18  0  0  0  0  0  0  0  0999 V2000
  -49.3352   58.3857   63.1011 C   0  0  0  0  0  0  0  0  0  0  0  0
  -50.1501   58.7865   61.8792 C   0  0  0  0  0  0  0  0  0  0  0  0
  -50.3140   57.6456   60.8894 C   0  0  0  0  0  0  0  0  0  0  0  0
  -50.0918   58.1457   59.4714 C   0  0  0  0  0  0  0  0  0  0  0  0
  -48.6035   58.1345   59.1720 C   0  0  0  0  0  0  0  0  0  0  0  0
  -48.3104   57.5645   57.7933 C   0  0  0  0  0  0  0  0  0  0  0  0
  -47.9874   56.0967   57.9235 C   0  0  0  0  0  0  0  0  0  0  0  0
  -47.8037   55.5951   59.0497 O   0  0  0  0  0  0  0  0  0  0  0  0
  -47.8937   55.3629   56.9167 O   0  0  0  0  0  0  0  0  0  0  0  0
  -48.0283   55.7213   56.0616 H   0  0  0  0  0  0  0  0  0  0  0  0
  -49.7513   59.3046   64.2405 C   0  0  0  0  0  0  0  0  0  0  0  0
  -49.2973   60.7256   64.0073 C   0  0  0  0  0  0  0  0  0  0  0  0
  -48.0963   61.2281   64.6931 C   0  0  0  0  0  0  0  0  0  0  0  0
  -47.4706   60.3899   65.7795 C   0  0  0  0  0  0  0  0  0  0  0  0
  -46.0716   59.9382   65.3746 C   0  0  0  0  0  0  0  0  0  0  0  0
  -46.0892   58.4673   64.9592 C   0  0  0  0  0  0  0  0  0  0  0  0
  -44.6837   57.9468   64.6614 C   0  0  0  0  0  0  0  0  0  0  0  0
  -43.8458   57.8059   65.9348 C   0  0  0  0  0  0  0  0  0  0  0  0
  -42.3468   57.9350   65.6771 C   0  0  0  0  0  0  0  0  0  0  0  0
  7  8  2  0  0  0
  7  6  1  0  0  0
  7  9  1  0  0  0
  6  5  1  0  0  0
  9 10  1  0  0  0
  5  4  1  0  0  0
  4  3  1  0  0  0
  3  2  1  0  0  0
  2  1  1  0  0  0
  1 11  1  0  0  0
 11 12  1  0  0  0
 12 13  2  0  0  0
 13 14  1  0  0  0
 14 15  1  0  0  0
 15 16  1  0  0  0
 16 17  1  0  0  0
 17 18  1  0  0  0
 18 19  1  0  0  0
M  END
> <minimizedAffinity>
-7.20147

> <CNNscore>
0.6288161874

> <CNNaffinity>
6.3566694260

> <CNN_VS>
3.9971766472

> <CNNaffinity_variance>
0.3380836844

$$$$
