/media/chris/experiments/cd1a-new-docking/inputs/ligands/4x6d_2_ligand.pdb


 19 18  0  0  0  0  0  0  0  0999 V2000
  -46.1729   57.7198   65.3524 C   0  0  0  0  0  0  0  0  0  0  0  0
  -44.8633   58.4152   65.0072 C   0  0  0  0  0  0  0  0  0  0  0  0
  -44.9228   59.9156   65.2379 C   0  0  0  0  0  0  0  0  0  0  0  0
  -43.6006   60.5583   64.8520 C   0  0  0  0  0  0  0  0  0  0  0  0
  -42.4641   59.6661   65.3179 C   0  0  0  0  0  0  0  0  0  0  0  0
  -41.5496   60.3840   66.2978 C   0  0  0  0  0  0  0  0  0  0  0  0
  -40.5489   61.2086   65.5269 C   0  0  0  0  0  0  0  0  0  0  0  0
  -40.0767   60.7777   64.4569 O   0  0  0  0  0  0  0  0  0  0  0  0
  -40.1735   62.3255   65.9424 O   0  0  0  0  0  0  0  0  0  0  0  0
  -40.5170   62.6667   66.7447 H   0  0  0  0  0  0  0  0  0  0  0  0
  -47.2992   58.6786   64.9946 C   0  0  0  0  0  0  0  0  0  0  0  0
  -48.6373   58.1761   65.4812 C   0  0  0  0  0  0  0  0  0  0  0  0
  -49.8644   58.5657   64.7688 C   0  0  0  0  0  0  0  0  0  0  0  0
  -49.7845   59.6310   63.7043 C   0  0  0  0  0  0  0  0  0  0  0  0
  -50.6520   59.2629   62.5058 C   0  0  0  0  0  0  0  0  0  0  0  0
  -50.1101   58.0059   61.8254 C   0  0  0  0  0  0  0  0  0  0  0  0
  -50.9519   57.6111   60.6131 C   0  0  0  0  0  0  0  0  0  0  0  0
  -50.2800   58.0115   59.2971 C   0  0  0  0  0  0  0  0  0  0  0  0
  -48.7598   58.0943   59.4072 C   0  0  0  0  0  0  0  0  0  0  0  0
  7  8  2  0  0  0
  7  6  1  0  0  0
  7  9  1  0  0  0
  6  5  1  0  0  0
  9 10  1  0  0  0
  5  4  1  0  0  0
  4  3  1  0  0  0
  3  2  1  0  0  0
  2  1  1  0  0  0
  1 11  1  0  0  0
 11 12  1  0  0  0
 12 13  2  0  0  0
 13 14  1  0  0  0
 14 15  1  0  0  0
 15 16  1  0  0  0
 16 17  1  0  0  0
 17 18  1  0  0  0
 18 19  1  0  0  0
M  END
> <minimizedAffinity>
-6.75483

> <CNNscore>
0.8456887603

> <CNNaffinity>
6.5200195312

> <CNN_VS>
5.5139074326

> <CNNaffinity_variance>
0.6970249414

$$$$
/media/chris/experiments/cd1a-new-docking/inputs/ligands/4x6d_2_ligand.pdb


 19 18  0  0  0  0  0  0  0  0999 V2000
  -42.6478   57.8808   65.9536 C   0  0  0  0  0  0  0  0  0  0  0  0
  -42.4032   59.1989   66.6752 C   0  0  0  0  0  0  0  0  0  0  0  0
  -41.0836   59.8411   66.2824 C   0  0  0  0  0  0  0  0  0  0  0  0
  -40.4086   59.0270   65.1908 C   0  0  0  0  0  0  0  0  0  0  0  0
  -39.3054   59.8609   64.5644 C   0  0  0  0  0  0  0  0  0  0  0  0
  -38.0255   59.8086   65.3834 C   0  0  0  0  0  0  0  0  0  0  0  0
  -37.7409   61.1799   65.9439 C   0  0  0  0  0  0  0  0  0  0  0  0
  -36.8192   61.3388   66.7679 O   0  0  0  0  0  0  0  0  0  0  0  0
  -38.4181   62.1723   65.6015 O   0  0  0  0  0  0  0  0  0  0  0  0
  -39.1153   62.0732   64.9832 H   0  0  0  0  0  0  0  0  0  0  0  0
  -44.1519   57.6503   65.9355 C   0  0  0  0  0  0  0  0  0  0  0  0
  -44.7699   58.0926   64.6309 C   0  0  0  0  0  0  0  0  0  0  0  0
  -46.1719   58.5389   64.6035 C   0  0  0  0  0  0  0  0  0  0  0  0
  -47.0265   58.3390   65.8299 C   0  0  0  0  0  0  0  0  0  0  0  0
  -48.3212   57.6168   65.4739 C   0  0  0  0  0  0  0  0  0  0  0  0
  -49.2141   58.5188   64.6219 C   0  0  0  0  0  0  0  0  0  0  0  0
  -49.7315   59.7164   65.4172 C   0  0  0  0  0  0  0  0  0  0  0  0
  -50.9386   60.3717   64.7411 C   0  0  0  0  0  0  0  0  0  0  0  0
  -51.1049   59.9499   63.2836 C   0  0  0  0  0  0  0  0  0  0  0  0
  7  8  2  0  0  0
  7  6  1  0  0  0
  7  9  1  0  0  0
  6  5  1  0  0  0
  9 10  1  0  0  0
  5  4  1  0  0  0
  4  3  1  0  0  0
  3  2  1  0  0  0
  2  1  1  0  0  0
  1 11  1  0  0  0
 11 12  1  0  0  0
 12 13  2  0  0  0
 13 14  1  0  0  0
 14 15  1  0  0  0
 15 16  1  0  0  0
 16 17  1  0  0  0
 17 18  1  0  0  0
 18 19  1  0  0  0
M  END
> <minimizedAffinity>
-6.31962

> <CNNscore>
0.7717352509

> <CNNaffinity>
6.1333222389

> <CNN_VS>
4.7333011627

> <CNNaffinity_variance>
0.1430455148

$$$$
/media/chris/experiments/cd1a-new-docking/inputs/ligands/4x6d_2_ligand.pdb


 19 18  0  0  0  0  0  0  0  0999 V2000
  -44.6552   59.7641   66.1841 C   0  0  0  0  0  0  0  0  0  0  0  0
  -43.9715   60.2041   64.8969 C   0  0  0  0  0  0  0  0  0  0  0  0
  -42.4841   60.4513   65.0833 C   0  0  0  0  0  0  0  0  0  0  0  0
  -41.7348   59.1298   65.1304 C   0  0  0  0  0  0  0  0  0  0  0  0
  -40.2558   59.3934   64.9121 C   0  0  0  0  0  0  0  0  0  0  0  0
  -39.5326   58.1574   64.4012 C   0  0  0  0  0  0  0  0  0  0  0  0
  -38.8339   58.4930   63.1071 C   0  0  0  0  0  0  0  0  0  0  0  0
  -38.9787   59.6193   62.5930 O   0  0  0  0  0  0  0  0  0  0  0  0
  -38.1077   57.6574   62.5280 O   0  0  0  0  0  0  0  0  0  0  0  0
  -37.9863   56.8054   62.8987 H   0  0  0  0  0  0  0  0  0  0  0  0
  -46.1380   59.6135   65.8769 C   0  0  0  0  0  0  0  0  0  0  0  0
  -46.6924   60.8347   65.1834 C   0  0  0  0  0  0  0  0  0  0  0  0
  -48.1096   61.1903   65.3571 C   0  0  0  0  0  0  0  0  0  0  0  0
  -49.0299   60.2117   66.0425 C   0  0  0  0  0  0  0  0  0  0  0  0
  -50.2333   59.8944   65.1617 C   0  0  0  0  0  0  0  0  0  0  0  0
  -49.8730   58.8151   64.1410 C   0  0  0  0  0  0  0  0  0  0  0  0
  -50.5299   59.0757   62.7864 C   0  0  0  0  0  0  0  0  0  0  0  0
  -49.9607   58.1687   61.6924 C   0  0  0  0  0  0  0  0  0  0  0  0
  -51.0406   57.5716   60.7939 C   0  0  0  0  0  0  0  0  0  0  0  0
  7  8  2  0  0  0
  7  6  1  0  0  0
  7  9  1  0  0  0
  6  5  1  0  0  0
  9 10  1  0  0  0
  5  4  1  0  0  0
  4  3  1  0  0  0
  3  2  1  0  0  0
  2  1  1  0  0  0
  1 11  1  0  0  0
 11 12  1  0  0  0
 12 13  2  0  0  0
 13 14  1  0  0  0
 14 15  1  0  0  0
 15 16  1  0  0  0
 16 17  1  0  0  0
 17 18  1  0  0  0
 18 19  1  0  0  0
M  END
> <minimizedAffinity>
-6.50493

> <CNNscore>
0.7131752372

> <CNNaffinity>
6.0927581787

> <CNN_VS>
4.3452043533

> <CNNaffinity_variance>
0.3370256424

$$$$
/media/chris/experiments/cd1a-new-docking/inputs/ligands/4x6d_2_ligand.pdb


 19 18  0  0  0  0  0  0  0  0999 V2000
  -44.1614   59.5302   64.9587 C   0  0  0  0  0  0  0  0  0  0  0  0
  -43.8909   58.0541   65.2154 C   0  0  0  0  0  0  0  0  0  0  0  0
  -42.4407   57.7826   65.5776 C   0  0  0  0  0  0  0  0  0  0  0  0
  -41.7162   59.0895   65.8555 C   0  0  0  0  0  0  0  0  0  0  0  0
  -40.3282   59.0236   65.2441 C   0  0  0  0  0  0  0  0  0  0  0  0
  -39.9672   60.3141   64.5256 C   0  0  0  0  0  0  0  0  0  0  0  0
  -39.5388   61.3428   65.5423 C   0  0  0  0  0  0  0  0  0  0  0  0
  -38.3901   61.3035   66.0246 O   0  0  0  0  0  0  0  0  0  0  0  0
  -40.3188   62.2422   65.9211 O   0  0  0  0  0  0  0  0  0  0  0  0
  -41.1864   62.2886   65.5702 H   0  0  0  0  0  0  0  0  0  0  0  0
  -45.5662   59.8246   65.4641 C   0  0  0  0  0  0  0  0  0  0  0  0
  -46.4558   58.6072   65.3846 C   0  0  0  0  0  0  0  0  0  0  0  0
  -47.9092   58.7545   65.5614 C   0  0  0  0  0  0  0  0  0  0  0  0
  -48.4574   60.0773   66.0348 C   0  0  0  0  0  0  0  0  0  0  0  0
  -49.0849   60.8468   64.8777 C   0  0  0  0  0  0  0  0  0  0  0  0
  -50.6080   60.7258   64.9249 C   0  0  0  0  0  0  0  0  0  0  0  0
  -51.1626   60.0679   63.6623 C   0  0  0  0  0  0  0  0  0  0  0  0
  -50.0719   59.8366   62.6133 C   0  0  0  0  0  0  0  0  0  0  0  0
  -49.9244   58.3682   62.2233 C   0  0  0  0  0  0  0  0  0  0  0  0
  7  8  2  0  0  0
  7  6  1  0  0  0
  7  9  1  0  0  0
  6  5  1  0  0  0
  9 10  1  0  0  0
  5  4  1  0  0  0
  4  3  1  0  0  0
  3  2  1  0  0  0
  2  1  1  0  0  0
  1 11  1  0  0  0
 11 12  1  0  0  0
 12 13  2  0  0  0
 13 14  1  0  0  0
 14 15  1  0  0  0
 15 16  1  0  0  0
 16 17  1  0  0  0
 17 18  1  0  0  0
 18 19  1  0  0  0
M  END
> <minimizedAffinity>
-6.56600

> <CNNscore>
0.6804608107

> <CNNaffinity>
6.0342326164

> <CNN_VS>
4.1060585976

> <CNNaffinity_variance>
0.2719497979

$$$$
/media/chris/experiments/cd1a-new-docking/inputs/ligands/4x6d_2_ligand.pdb


 19 18  0  0  0  0  0  0  0  0999 V2000
  -49.8020   58.6575   64.6617 C   0  0  0  0  0  0  0  0  0  0  0  0
  -50.5376   59.8220   64.0131 C   0  0  0  0  0  0  0  0  0  0  0  0
  -50.9084   59.5428   62.5665 C   0  0  0  0  0  0  0  0  0  0  0  0
  -50.0465   58.4207   62.0114 C   0  0  0  0  0  0  0  0  0  0  0  0
  -50.8512   57.6411   60.9871 C   0  0  0  0  0  0  0  0  0  0  0  0
  -50.4502   57.9988   59.5648 C   0  0  0  0  0  0  0  0  0  0  0  0
  -49.0492   57.5029   59.3065 C   0  0  0  0  0  0  0  0  0  0  0  0
  -48.1459   58.3092   59.0106 O   0  0  0  0  0  0  0  0  0  0  0  0
  -48.7694   56.2874   59.3784 O   0  0  0  0  0  0  0  0  0  0  0  0
  -49.4347   55.6656   59.5995 H   0  0  0  0  0  0  0  0  0  0  0  0
  -48.7893   59.2492   65.6312 C   0  0  0  0  0  0  0  0  0  0  0  0
  -48.3276   60.6179   65.1915 C   0  0  0  0  0  0  0  0  0  0  0  0
  -46.8889   60.9251   65.1577 C   0  0  0  0  0  0  0  0  0  0  0  0
  -45.9182   59.9463   65.7692 C   0  0  0  0  0  0  0  0  0  0  0  0
  -44.4838   60.3037   65.3957 C   0  0  0  0  0  0  0  0  0  0  0  0
  -43.5029   59.6329   66.3573 C   0  0  0  0  0  0  0  0  0  0  0  0
  -42.6413   60.6580   67.0929 C   0  0  0  0  0  0  0  0  0  0  0  0
  -41.4527   61.1179   66.2448 C   0  0  0  0  0  0  0  0  0  0  0  0
  -40.5591   59.9636   65.7986 C   0  0  0  0  0  0  0  0  0  0  0  0
  7  8  2  0  0  0
  7  6  1  0  0  0
  7  9  1  0  0  0
  6  5  1  0  0  0
  9 10  1  0  0  0
  5  4  1  0  0  0
  4  3  1  0  0  0
  3  2  1  0  0  0
  2  1  1  0  0  0
  1 11  1  0  0  0
 11 12  1  0  0  0
 12 13  2  0  0  0
 13 14  1  0  0  0
 14 15  1  0  0  0
 15 16  1  0  0  0
 16 17  1  0  0  0
 17 18  1  0  0  0
 18 19  1  0  0  0
M  END
> <minimizedAffinity>
-6.80229

> <CNNscore>
0.6682515144

> <CNNaffinity>
6.1555705070

> <CNN_VS>
4.1134691238

> <CNNaffinity_variance>
0.5147761106

$$$$
/media/chris/experiments/cd1a-new-docking/inputs/ligands/4x6d_2_ligand.pdb


 19 18  0  0  0  0  0  0  0  0999 V2000
  -41.6892   59.4189   66.8507 C   0  0  0  0  0  0  0  0  0  0  0  0
  -40.5534   59.7020   65.8772 C   0  0  0  0  0  0  0  0  0  0  0  0
  -40.3763   58.5951   64.8518 C   0  0  0  0  0  0  0  0  0  0  0  0
  -38.9025   58.4089   64.5304 C   0  0  0  0  0  0  0  0  0  0  0  0
  -38.7214   58.4177   63.0232 C   0  0  0  0  0  0  0  0  0  0  0  0
  -37.5290   57.5777   62.5940 C   0  0  0  0  0  0  0  0  0  0  0  0
  -37.2585   57.8153   61.1291 C   0  0  0  0  0  0  0  0  0  0  0  0
  -36.4803   57.0653   60.5081 O   0  0  0  0  0  0  0  0  0  0  0  0
  -37.7988   58.7604   60.5162 O   0  0  0  0  0  0  0  0  0  0  0  0
  -38.3868   59.3352   60.9656 H   0  0  0  0  0  0  0  0  0  0  0  0
  -42.6750   60.5729   66.7395 C   0  0  0  0  0  0  0  0  0  0  0  0
  -43.5036   60.4812   65.4807 C   0  0  0  0  0  0  0  0  0  0  0  0
  -44.9186   60.0868   65.5674 C   0  0  0  0  0  0  0  0  0  0  0  0
  -45.4543   59.5709   66.8793 C   0  0  0  0  0  0  0  0  0  0  0  0
  -46.7944   58.8721   66.6779 C   0  0  0  0  0  0  0  0  0  0  0  0
  -47.5182   59.4537   65.4636 C   0  0  0  0  0  0  0  0  0  0  0  0
  -48.4736   58.4403   64.8355 C   0  0  0  0  0  0  0  0  0  0  0  0
  -49.8815   58.5401   65.4283 C   0  0  0  0  0  0  0  0  0  0  0  0
  -50.3497   59.9817   65.6084 C   0  0  0  0  0  0  0  0  0  0  0  0
  7  8  2  0  0  0
  7  6  1  0  0  0
  7  9  1  0  0  0
  6  5  1  0  0  0
  9 10  1  0  0  0
  5  4  1  0  0  0
  4  3  1  0  0  0
  3  2  1  0  0  0
  2  1  1  0  0  0
  1 11  1  0  0  0
 11 12  1  0  0  0
 12 13  2  0  0  0
 13 14  1  0  0  0
 14 15  1  0  0  0
 15 16  1  0  0  0
 16 17  1  0  0  0
 17 18  1  0  0  0
 18 19  1  0  0  0
M  END
> <minimizedAffinity>
-6.60545

> <CNNscore>
0.6585660577

> <CNNaffinity>
5.8614888191

> <CNN_VS>
3.8601775169

> <CNNaffinity_variance>
0.1367005259

$$$$
/media/chris/experiments/cd1a-new-docking/inputs/ligands/4x6d_2_ligand.pdb


 19 18  0  0  0  0  0  0  0  0999 V2000
  -43.1272   60.3340   66.4822 C   0  0  0  0  0  0  0  0  0  0  0  0
  -42.1031   59.2180   66.6359 C   0  0  0  0  0  0  0  0  0  0  0  0
  -41.6225   58.6811   65.2985 C   0  0  0  0  0  0  0  0  0  0  0  0
  -40.1578   59.0291   65.0895 C   0  0  0  0  0  0  0  0  0  0  0  0
  -39.4812   57.8903   64.3478 C   0  0  0  0  0  0  0  0  0  0  0  0
  -38.0787   58.2662   63.8969 C   0  0  0  0  0  0  0  0  0  0  0  0
  -38.0181   58.2320   62.3900 C   0  0  0  0  0  0  0  0  0  0  0  0
  -37.5507   57.2348   61.8062 O   0  0  0  0  0  0  0  0  0  0  0  0
  -38.4260   59.1932   61.7040 O   0  0  0  0  0  0  0  0  0  0  0  0
  -38.7808   59.9518   62.1243 H   0  0  0  0  0  0  0  0  0  0  0  0
  -44.4117   59.6984   65.9703 C   0  0  0  0  0  0  0  0  0  0  0  0
  -45.4928   59.6953   67.0243 C   0  0  0  0  0  0  0  0  0  0  0  0
  -46.4274   58.5616   67.1054 C   0  0  0  0  0  0  0  0  0  0  0  0
  -46.4272   57.5339   66.0017 C   0  0  0  0  0  0  0  0  0  0  0  0
  -47.8309   57.3490   65.4359 C   0  0  0  0  0  0  0  0  0  0  0  0
  -48.3061   58.6380   64.7656 C   0  0  0  0  0  0  0  0  0  0  0  0
  -49.8122   58.8379   64.9275 C   0  0  0  0  0  0  0  0  0  0  0  0
  -50.3141   60.0529   64.1432 C   0  0  0  0  0  0  0  0  0  0  0  0
  -51.0115   59.6723   62.8398 C   0  0  0  0  0  0  0  0  0  0  0  0
  7  8  2  0  0  0
  7  6  1  0  0  0
  7  9  1  0  0  0
  6  5  1  0  0  0
  9 10  1  0  0  0
  5  4  1  0  0  0
  4  3  1  0  0  0
  3  2  1  0  0  0
  2  1  1  0  0  0
  1 11  1  0  0  0
 11 12  1  0  0  0
 12 13  2  0  0  0
 13 14  1  0  0  0
 14 15  1  0  0  0
 15 16  1  0  0  0
 16 17  1  0  0  0
 17 18  1  0  0  0
 18 19  1  0  0  0
M  END
> <minimizedAffinity>
-6.27701

> <CNNscore>
0.6153239012

> <CNNaffinity>
6.0395011902

> <CNN_VS>
3.7162494659

> <CNNaffinity_variance>
0.2754137516

$$$$
/media/chris/experiments/cd1a-new-docking/inputs/ligands/4x6d_2_ligand.pdb


 19 18  0  0  0  0  0  0  0  0999 V2000
  -49.9377   59.1476   64.9339 C   0  0  0  0  0  0  0  0  0  0  0  0
  -50.6810   60.1493   64.0611 C   0  0  0  0  0  0  0  0  0  0  0  0
  -51.0004   59.5958   62.6828 C   0  0  0  0  0  0  0  0  0  0  0  0
  -50.1759   58.3474   62.4152 C   0  0  0  0  0  0  0  0  0  0  0  0
  -50.7110   57.6601   61.1718 C   0  0  0  0  0  0  0  0  0  0  0  0
  -50.1746   58.2982   59.9003 C   0  0  0  0  0  0  0  0  0  0  0  0
  -49.3510   57.2833   59.1473 C   0  0  0  0  0  0  0  0  0  0  0  0
  -48.9707   56.2415   59.7163 O   0  0  0  0  0  0  0  0  0  0  0  0
  -49.0326   57.4658   57.9530 O   0  0  0  0  0  0  0  0  0  0  0  0
  -49.3088   58.2427   57.5079 H   0  0  0  0  0  0  0  0  0  0  0  0
  -49.1554   59.9449   65.9674 C   0  0  0  0  0  0  0  0  0  0  0  0
  -47.9634   60.6389   65.3533 C   0  0  0  0  0  0  0  0  0  0  0  0
  -46.6043   60.2523   65.7640 C   0  0  0  0  0  0  0  0  0  0  0  0
  -46.4324   59.3294   66.9443 C   0  0  0  0  0  0  0  0  0  0  0  0
  -45.9505   57.9560   66.4901 C   0  0  0  0  0  0  0  0  0  0  0  0
  -45.5269   58.0018   65.0221 C   0  0  0  0  0  0  0  0  0  0  0  0
  -44.1677   57.3388   64.8045 C   0  0  0  0  0  0  0  0  0  0  0  0
  -43.1104   57.8733   65.7740 C   0  0  0  0  0  0  0  0  0  0  0  0
  -42.3877   59.1086   65.2430 C   0  0  0  0  0  0  0  0  0  0  0  0
  7  8  2  0  0  0
  7  6  1  0  0  0
  7  9  1  0  0  0
  6  5  1  0  0  0
  9 10  1  0  0  0
  5  4  1  0  0  0
  4  3  1  0  0  0
  3  2  1  0  0  0
  2  1  1  0  0  0
  1 11  1  0  0  0
 11 12  1  0  0  0
 12 13  2  0  0  0
 13 14  1  0  0  0
 14 15  1  0  0  0
 15 16  1  0  0  0
 16 17  1  0  0  0
 17 18  1  0  0  0
 18 19  1  0  0  0
M  END
> <minimizedAffinity>
-6.81345

> <CNNscore>
0.5909567475

> <CNNaffinity>
6.2166519165

> <CNN_VS>
3.6737723351

> <CNNaffinity_variance>
0.6769797802

$$$$
/media/chris/experiments/cd1a-new-docking/inputs/ligands/4x6d_2_ligand.pdb


 19 18  0  0  0  0  0  0  0  0999 V2000
  -49.3288   60.2104   66.0410 C   0  0  0  0  0  0  0  0  0  0  0  0
  -48.7085   61.4077   65.3342 C   0  0  0  0  0  0  0  0  0  0  0  0
  -47.3072   61.1198   64.8229 C   0  0  0  0  0  0  0  0  0  0  0  0
  -46.5232   60.3302   65.8582 C   0  0  0  0  0  0  0  0  0  0  0  0
  -45.0768   60.2274   65.4087 C   0  0  0  0  0  0  0  0  0  0  0  0
  -44.3097   59.1886   66.2114 C   0  0  0  0  0  0  0  0  0  0  0  0
  -44.8674   57.8199   65.9094 C   0  0  0  0  0  0  0  0  0  0  0  0
  -45.6034   57.2488   66.7375 O   0  0  0  0  0  0  0  0  0  0  0  0
  -44.6024   57.2352   64.8376 O   0  0  0  0  0  0  0  0  0  0  0  0
  -44.0509   57.6481   64.2024 H   0  0  0  0  0  0  0  0  0  0  0  0
  -49.9185   59.3093   64.9659 C   0  0  0  0  0  0  0  0  0  0  0  0
  -50.7451   60.0906   63.9728 C   0  0  0  0  0  0  0  0  0  0  0  0
  -50.9797   59.5408   62.6282 C   0  0  0  0  0  0  0  0  0  0  0  0
  -50.2120   58.3171   62.1950 C   0  0  0  0  0  0  0  0  0  0  0  0
  -50.8688   57.6696   60.9809 C   0  0  0  0  0  0  0  0  0  0  0  0
  -49.8578   56.8020   60.2313 C   0  0  0  0  0  0  0  0  0  0  0  0
  -49.2276   57.5524   59.0590 C   0  0  0  0  0  0  0  0  0  0  0  0
  -47.7498   57.8637   59.3092 C   0  0  0  0  0  0  0  0  0  0  0  0
  -47.0434   58.4229   58.0769 C   0  0  0  0  0  0  0  0  0  0  0  0
  7  8  2  0  0  0
  7  6  1  0  0  0
  7  9  1  0  0  0
  6  5  1  0  0  0
  9 10  1  0  0  0
  5  4  1  0  0  0
  4  3  1  0  0  0
  3  2  1  0  0  0
  2  1  1  0  0  0
  1 11  1  0  0  0
 11 12  1  0  0  0
 12 13  2  0  0  0
 13 14  1  0  0  0
 14 15  1  0  0  0
 15 16  1  0  0  0
 16 17  1  0  0  0
 17 18  1  0  0  0
 18 19  1  0  0  0
M  END
> <minimizedAffinity>
-7.40084

> <CNNscore>
0.5250312090

> <CNNaffinity>
6.0975899696

> <CNN_VS>
3.2014250755

> <CNNaffinity_variance>
0.2425204068

$$$$
