/media/chris/experiments/cd1a-new-docking/inputs/ligands/4x6d_2_ligand.pdb


 19 18  0  0  0  0  0  0  0  0999 V2000
  -47.7834   58.5321   64.9311 C   0  0  0  0  0  0  0  0  0  0  0  0
  -47.2311   57.7735   66.1301 C   0  0  0  0  0  0  0  0  0  0  0  0
  -46.4410   58.6675   67.0705 C   0  0  0  0  0  0  0  0  0  0  0  0
  -45.7116   59.7430   66.2824 C   0  0  0  0  0  0  0  0  0  0  0  0
  -44.2805   59.2957   66.0452 C   0  0  0  0  0  0  0  0  0  0  0  0
  -43.4210   60.4238   65.4969 C   0  0  0  0  0  0  0  0  0  0  0  0
  -42.3164   60.7260   66.4787 C   0  0  0  0  0  0  0  0  0  0  0  0
  -41.1325   60.7737   66.0915 O   0  0  0  0  0  0  0  0  0  0  0  0
  -42.5616   60.9277   67.6870 O   0  0  0  0  0  0  0  0  0  0  0  0
  -43.4452   60.8961   67.9973 H   0  0  0  0  0  0  0  0  0  0  0  0
  -49.2601   58.1822   64.8188 C   0  0  0  0  0  0  0  0  0  0  0  0
  -50.0708   59.3413   64.2906 C   0  0  0  0  0  0  0  0  0  0  0  0
  -50.5413   59.3256   62.8964 C   0  0  0  0  0  0  0  0  0  0  0  0
  -50.0219   58.2620   61.9619 C   0  0  0  0  0  0  0  0  0  0  0  0
  -49.8067   58.8301   60.5635 C   0  0  0  0  0  0  0  0  0  0  0  0
  -50.2846   57.8340   59.5073 C   0  0  0  0  0  0  0  0  0  0  0  0
  -49.2162   57.5796   58.4451 C   0  0  0  0  0  0  0  0  0  0  0  0
  -47.8108   57.8980   58.9617 C   0  0  0  0  0  0  0  0  0  0  0  0
  -46.9421   58.6045   57.9243 C   0  0  0  0  0  0  0  0  0  0  0  0
  7  8  2  0  0  0
  7  6  1  0  0  0
  7  9  1  0  0  0
  6  5  1  0  0  0
  9 10  1  0  0  0
  5  4  1  0  0  0
  4  3  1  0  0  0
  3  2  1  0  0  0
  2  1  1  0  0  0
  1 11  1  0  0  0
 11 12  1  0  0  0
 12 13  2  0  0  0
 13 14  1  0  0  0
 14 15  1  0  0  0
 15 16  1  0  0  0
 16 17  1  0  0  0
 17 18  1  0  0  0
 18 19  1  0  0  0
M  END
> <minimizedAffinity>
-6.98291

> <CNNscore>
0.8243059516

> <CNNaffinity>
6.5664482117

> <CNN_VS>
5.4127621651

> <CNNaffinity_variance>
0.5744978189

$$$$
/media/chris/experiments/cd1a-new-docking/inputs/ligands/4x6d_2_ligand.pdb


 19 18  0  0  0  0  0  0  0  0999 V2000
  -46.2244   60.9019   65.1304 C   0  0  0  0  0  0  0  0  0  0  0  0
  -45.5510   59.5702   65.4319 C   0  0  0  0  0  0  0  0  0  0  0  0
  -44.4726   59.6910   66.4951 C   0  0  0  0  0  0  0  0  0  0  0  0
  -43.3518   58.7021   66.2198 C   0  0  0  0  0  0  0  0  0  0  0  0
  -42.0215   59.3666   66.5252 C   0  0  0  0  0  0  0  0  0  0  0  0
  -42.1758   60.8638   66.7409 C   0  0  0  0  0  0  0  0  0  0  0  0
  -41.3823   61.5991   65.6897 C   0  0  0  0  0  0  0  0  0  0  0  0
  -41.6067   61.3943   64.4808 O   0  0  0  0  0  0  0  0  0  0  0  0
  -40.4909   62.4157   66.0050 O   0  0  0  0  0  0  0  0  0  0  0  0
  -40.3073   62.5832   66.9086 H   0  0  0  0  0  0  0  0  0  0  0  0
  -47.7267   60.6600   65.1457 C   0  0  0  0  0  0  0  0  0  0  0  0
  -48.0573   59.1894   65.0584 C   0  0  0  0  0  0  0  0  0  0  0  0
  -49.3469   58.7653   64.4904 C   0  0  0  0  0  0  0  0  0  0  0  0
  -50.4001   59.8077   64.2103 C   0  0  0  0  0  0  0  0  0  0  0  0
  -50.9399   59.6623   62.7917 C   0  0  0  0  0  0  0  0  0  0  0  0
  -50.0918   58.6661   62.0014 C   0  0  0  0  0  0  0  0  0  0  0  0
  -49.9153   59.1018   60.5476 C   0  0  0  0  0  0  0  0  0  0  0  0
  -50.0436   57.9231   59.5793 C   0  0  0  0  0  0  0  0  0  0  0  0
  -49.7160   56.5814   60.2295 C   0  0  0  0  0  0  0  0  0  0  0  0
  7  8  2  0  0  0
  7  6  1  0  0  0
  7  9  1  0  0  0
  6  5  1  0  0  0
  9 10  1  0  0  0
  5  4  1  0  0  0
  4  3  1  0  0  0
  3  2  1  0  0  0
  2  1  1  0  0  0
  1 11  1  0  0  0
 11 12  1  0  0  0
 12 13  2  0  0  0
 13 14  1  0  0  0
 14 15  1  0  0  0
 15 16  1  0  0  0
 16 17  1  0  0  0
 17 18  1  0  0  0
 18 19  1  0  0  0
M  END
> <minimizedAffinity>
-6.74589

> <CNNscore>
0.8009866476

> <CNNaffinity>
6.2803659439

> <CNN_VS>
5.0304894447

> <CNNaffinity_variance>
0.4288855493

$$$$
/media/chris/experiments/cd1a-new-docking/inputs/ligands/4x6d_2_ligand.pdb


 19 18  0  0  0  0  0  0  0  0999 V2000
  -45.3748   59.6506   66.5589 C   0  0  0  0  0  0  0  0  0  0  0  0
  -44.3344   60.0123   65.5079 C   0  0  0  0  0  0  0  0  0  0  0  0
  -43.4409   58.8382   65.1457 C   0  0  0  0  0  0  0  0  0  0  0  0
  -42.6280   58.4053   66.3547 C   0  0  0  0  0  0  0  0  0  0  0  0
  -41.7601   59.5658   66.8068 C   0  0  0  0  0  0  0  0  0  0  0  0
  -40.6010   59.8077   65.8529 C   0  0  0  0  0  0  0  0  0  0  0  0
  -40.7035   61.2053   65.2946 C   0  0  0  0  0  0  0  0  0  0  0  0
  -41.1572   61.3880   64.1480 O   0  0  0  0  0  0  0  0  0  0  0  0
  -40.3358   62.1967   65.9600 O   0  0  0  0  0  0  0  0  0  0  0  0
  -39.9920   62.0798   66.8238 H   0  0  0  0  0  0  0  0  0  0  0  0
  -46.7151   59.5417   65.8464 C   0  0  0  0  0  0  0  0  0  0  0  0
  -47.1491   60.8662   65.2658 C   0  0  0  0  0  0  0  0  0  0  0  0
  -48.5828   61.1556   65.1038 C   0  0  0  0  0  0  0  0  0  0  0  0
  -49.5807   60.0447   65.3140 C   0  0  0  0  0  0  0  0  0  0  0  0
  -50.9402   60.4238   64.7372 C   0  0  0  0  0  0  0  0  0  0  0  0
  -51.0183   60.0311   63.2620 C   0  0  0  0  0  0  0  0  0  0  0  0
  -50.2832   58.7204   62.9859 C   0  0  0  0  0  0  0  0  0  0  0  0
  -50.0190   58.5183   61.4917 C   0  0  0  0  0  0  0  0  0  0  0  0
  -50.9389   57.4759   60.8612 C   0  0  0  0  0  0  0  0  0  0  0  0
  7  8  2  0  0  0
  7  6  1  0  0  0
  7  9  1  0  0  0
  6  5  1  0  0  0
  9 10  1  0  0  0
  5  4  1  0  0  0
  4  3  1  0  0  0
  3  2  1  0  0  0
  2  1  1  0  0  0
  1 11  1  0  0  0
 11 12  1  0  0  0
 12 13  2  0  0  0
 13 14  1  0  0  0
 14 15  1  0  0  0
 15 16  1  0  0  0
 16 17  1  0  0  0
 17 18  1  0  0  0
 18 19  1  0  0  0
M  END
> <minimizedAffinity>
-6.85673

> <CNNscore>
0.7636485100

> <CNNaffinity>
6.0496768951

> <CNN_VS>
4.6198267937

> <CNNaffinity_variance>
0.2973201275

$$$$
/media/chris/experiments/cd1a-new-docking/inputs/ligands/4x6d_2_ligand.pdb


 19 18  0  0  0  0  0  0  0  0999 V2000
  -43.5605   57.8770   65.2340 C   0  0  0  0  0  0  0  0  0  0  0  0
  -43.1203   59.3180   65.4524 C   0  0  0  0  0  0  0  0  0  0  0  0
  -42.4055   59.8975   64.2435 C   0  0  0  0  0  0  0  0  0  0  0  0
  -40.9000   59.8096   64.4326 C   0  0  0  0  0  0  0  0  0  0  0  0
  -40.2230   60.7350   63.4378 C   0  0  0  0  0  0  0  0  0  0  0  0
  -39.2664   59.9811   62.5276 C   0  0  0  0  0  0  0  0  0  0  0  0
  -38.8395   60.8872   61.3997 C   0  0  0  0  0  0  0  0  0  0  0  0
  -39.4389   60.8496   60.3074 O   0  0  0  0  0  0  0  0  0  0  0  0
  -37.8846   61.6815   61.5336 O   0  0  0  0  0  0  0  0  0  0  0  0
  -37.4214   61.7245   62.3471 H   0  0  0  0  0  0  0  0  0  0  0  0
  -44.9904   57.9172   64.7147 C   0  0  0  0  0  0  0  0  0  0  0  0
  -45.9682   57.3682   65.7257 C   0  0  0  0  0  0  0  0  0  0  0  0
  -47.4074   57.6279   65.5623 C   0  0  0  0  0  0  0  0  0  0  0  0
  -47.8573   58.6168   64.5163 C   0  0  0  0  0  0  0  0  0  0  0  0
  -49.3238   58.3974   64.1612 C   0  0  0  0  0  0  0  0  0  0  0  0
  -49.6785   59.1554   62.8821 C   0  0  0  0  0  0  0  0  0  0  0  0
  -50.5196   58.3023   61.9338 C   0  0  0  0  0  0  0  0  0  0  0  0
  -50.0548   58.4366   60.4815 C   0  0  0  0  0  0  0  0  0  0  0  0
  -48.6416   57.9044   60.2582 C   0  0  0  0  0  0  0  0  0  0  0  0
  7  8  2  0  0  0
  7  6  1  0  0  0
  7  9  1  0  0  0
  6  5  1  0  0  0
  9 10  1  0  0  0
  5  4  1  0  0  0
  4  3  1  0  0  0
  3  2  1  0  0  0
  2  1  1  0  0  0
  1 11  1  0  0  0
 11 12  1  0  0  0
 12 13  2  0  0  0
 13 14  1  0  0  0
 14 15  1  0  0  0
 15 16  1  0  0  0
 16 17  1  0  0  0
 17 18  1  0  0  0
 18 19  1  0  0  0
M  END
> <minimizedAffinity>
-6.49886

> <CNNscore>
0.7481389046

> <CNNaffinity>
6.3581104279

> <CNN_VS>
4.7567496300

> <CNNaffinity_variance>
0.6045288444

$$$$
/media/chris/experiments/cd1a-new-docking/inputs/ligands/4x6d_2_ligand.pdb


 19 18  0  0  0  0  0  0  0  0999 V2000
  -46.8293   60.8863   65.2807 C   0  0  0  0  0  0  0  0  0  0  0  0
  -46.0359   59.5925   65.4021 C   0  0  0  0  0  0  0  0  0  0  0  0
  -45.0374   59.6275   66.5466 C   0  0  0  0  0  0  0  0  0  0  0  0
  -43.7565   60.3155   66.1040 C   0  0  0  0  0  0  0  0  0  0  0  0
  -43.3028   59.7131   64.7866 C   0  0  0  0  0  0  0  0  0  0  0  0
  -42.1093   60.4567   64.2082 C   0  0  0  0  0  0  0  0  0  0  0  0
  -40.8670   59.6228   64.3997 C   0  0  0  0  0  0  0  0  0  0  0  0
  -39.9402   59.6829   63.5683 O   0  0  0  0  0  0  0  0  0  0  0  0
  -40.7444   58.8601   65.3815 O   0  0  0  0  0  0  0  0  0  0  0  0
  -41.4301   58.8010   66.0174 H   0  0  0  0  0  0  0  0  0  0  0  0
  -48.2151   60.5180   64.7712 C   0  0  0  0  0  0  0  0  0  0  0  0
  -48.4265   59.0231   64.7562 C   0  0  0  0  0  0  0  0  0  0  0  0
  -49.0800   58.3915   63.5989 C   0  0  0  0  0  0  0  0  0  0  0  0
  -49.7211   59.2688   62.5531 C   0  0  0  0  0  0  0  0  0  0  0  0
  -50.7529   58.4850   61.7494 C   0  0  0  0  0  0  0  0  0  0  0  0
  -50.0561   57.5292   60.7814 C   0  0  0  0  0  0  0  0  0  0  0  0
  -49.1426   58.2747   59.8096 C   0  0  0  0  0  0  0  0  0  0  0  0
  -47.8019   57.5594   59.6241 C   0  0  0  0  0  0  0  0  0  0  0  0
  -46.9341   58.1949   58.5410 C   0  0  0  0  0  0  0  0  0  0  0  0
  7  8  2  0  0  0
  7  6  1  0  0  0
  7  9  1  0  0  0
  6  5  1  0  0  0
  9 10  1  0  0  0
  5  4  1  0  0  0
  4  3  1  0  0  0
  3  2  1  0  0  0
  2  1  1  0  0  0
  1 11  1  0  0  0
 11 12  1  0  0  0
 12 13  2  0  0  0
 13 14  1  0  0  0
 14 15  1  0  0  0
 15 16  1  0  0  0
 16 17  1  0  0  0
 17 18  1  0  0  0
 18 19  1  0  0  0
M  END
> <minimizedAffinity>
-6.57827

> <CNNscore>
0.7370142341

> <CNNaffinity>
6.4313759804

> <CNN_VS>
4.7400155067

> <CNNaffinity_variance>
0.3726871610

$$$$
/media/chris/experiments/cd1a-new-docking/inputs/ligands/4x6d_2_ligand.pdb


 19 18  0  0  0  0  0  0  0  0999 V2000
  -43.2412   57.9698   65.3202 C   0  0  0  0  0  0  0  0  0  0  0  0
  -42.7054   58.8432   66.4463 C   0  0  0  0  0  0  0  0  0  0  0  0
  -41.2369   59.1882   66.2665 C   0  0  0  0  0  0  0  0  0  0  0  0
  -40.7088   58.5785   64.9784 C   0  0  0  0  0  0  0  0  0  0  0  0
  -39.6486   59.4960   64.3967 C   0  0  0  0  0  0  0  0  0  0  0  0
  -38.6275   59.9122   65.4436 C   0  0  0  0  0  0  0  0  0  0  0  0
  -38.4958   61.4148   65.4360 C   0  0  0  0  0  0  0  0  0  0  0  0
  -37.4369   61.9470   65.0492 O   0  0  0  0  0  0  0  0  0  0  0  0
  -39.4323   62.1486   65.8171 O   0  0  0  0  0  0  0  0  0  0  0  0
  -40.2361   61.7675   66.1116 H   0  0  0  0  0  0  0  0  0  0  0  0
  -44.7203   58.2925   65.1655 C   0  0  0  0  0  0  0  0  0  0  0  0
  -44.9997   59.7587   65.3932 C   0  0  0  0  0  0  0  0  0  0  0  0
  -46.3903   60.2393   65.4218 C   0  0  0  0  0  0  0  0  0  0  0  0
  -47.4961   59.3016   65.0065 C   0  0  0  0  0  0  0  0  0  0  0  0
  -48.5782   59.2346   66.0786 C   0  0  0  0  0  0  0  0  0  0  0  0
  -49.9580   59.1145   65.4321 C   0  0  0  0  0  0  0  0  0  0  0  0
  -50.3432   60.3877   64.6803 C   0  0  0  0  0  0  0  0  0  0  0  0
  -51.1288   60.0804   63.4029 C   0  0  0  0  0  0  0  0  0  0  0  0
  -50.5441   58.9131   62.6119 C   0  0  0  0  0  0  0  0  0  0  0  0
  7  8  2  0  0  0
  7  6  1  0  0  0
  7  9  1  0  0  0
  6  5  1  0  0  0
  9 10  1  0  0  0
  5  4  1  0  0  0
  4  3  1  0  0  0
  3  2  1  0  0  0
  2  1  1  0  0  0
  1 11  1  0  0  0
 11 12  1  0  0  0
 12 13  2  0  0  0
 13 14  1  0  0  0
 14 15  1  0  0  0
 15 16  1  0  0  0
 16 17  1  0  0  0
 17 18  1  0  0  0
 18 19  1  0  0  0
M  END
> <minimizedAffinity>
-6.33297

> <CNNscore>
0.6875063777

> <CNNaffinity>
5.9787425995

> <CNN_VS>
4.1104235649

> <CNNaffinity_variance>
0.2240573466

$$$$
/media/chris/experiments/cd1a-new-docking/inputs/ligands/4x6d_2_ligand.pdb


 19 18  0  0  0  0  0  0  0  0999 V2000
  -44.4607   57.2644   64.6916 C   0  0  0  0  0  0  0  0  0  0  0  0
  -43.3866   57.6102   65.7137 C   0  0  0  0  0  0  0  0  0  0  0  0
  -42.9650   59.0681   65.6441 C   0  0  0  0  0  0  0  0  0  0  0  0
  -41.5077   59.2124   66.0509 C   0  0  0  0  0  0  0  0  0  0  0  0
  -40.6624   59.3911   64.8028 C   0  0  0  0  0  0  0  0  0  0  0  0
  -39.1824   59.4974   65.1350 C   0  0  0  0  0  0  0  0  0  0  0  0
  -38.4547   58.3215   64.5326 C   0  0  0  0  0  0  0  0  0  0  0  0
  -38.8188   57.8575   63.4344 O   0  0  0  0  0  0  0  0  0  0  0  0
  -37.4862   57.7912   65.1171 O   0  0  0  0  0  0  0  0  0  0  0  0
  -37.1975   58.1255   65.9435 H   0  0  0  0  0  0  0  0  0  0  0  0
  -45.6158   58.2311   64.9085 C   0  0  0  0  0  0  0  0  0  0  0  0
  -46.7030   57.6214   65.7605 C   0  0  0  0  0  0  0  0  0  0  0  0
  -48.1072   57.7232   65.3322 C   0  0  0  0  0  0  0  0  0  0  0  0
  -48.4535   58.6199   64.1701 C   0  0  0  0  0  0  0  0  0  0  0  0
  -49.9049   59.0789   64.2561 C   0  0  0  0  0  0  0  0  0  0  0  0
  -50.5440   59.0786   62.8676 C   0  0  0  0  0  0  0  0  0  0  0  0
  -49.8574   58.0876   61.9290 C   0  0  0  0  0  0  0  0  0  0  0  0
  -50.8100   57.5728   60.8469 C   0  0  0  0  0  0  0  0  0  0  0  0
  -50.3918   57.9902   59.4395 C   0  0  0  0  0  0  0  0  0  0  0  0
  7  8  2  0  0  0
  7  6  1  0  0  0
  7  9  1  0  0  0
  6  5  1  0  0  0
  9 10  1  0  0  0
  5  4  1  0  0  0
  4  3  1  0  0  0
  3  2  1  0  0  0
  2  1  1  0  0  0
  1 11  1  0  0  0
 11 12  1  0  0  0
 12 13  2  0  0  0
 13 14  1  0  0  0
 14 15  1  0  0  0
 15 16  1  0  0  0
 16 17  1  0  0  0
 17 18  1  0  0  0
 18 19  1  0  0  0
M  END
> <minimizedAffinity>
-6.52532

> <CNNscore>
0.6814618111

> <CNNaffinity>
6.2353172302

> <CNN_VS>
4.2491307259

> <CNNaffinity_variance>
0.4026004672

$$$$
/media/chris/experiments/cd1a-new-docking/inputs/ligands/4x6d_2_ligand.pdb


 19 18  0  0  0  0  0  0  0  0999 V2000
  -41.5802   59.7023   65.0525 C   0  0  0  0  0  0  0  0  0  0  0  0
  -40.4063   58.7476   65.2208 C   0  0  0  0  0  0  0  0  0  0  0  0
  -39.5128   58.7020   63.9930 C   0  0  0  0  0  0  0  0  0  0  0  0
  -38.1076   58.2738   64.3827 C   0  0  0  0  0  0  0  0  0  0  0  0
  -37.5191   59.3099   65.3231 C   0  0  0  0  0  0  0  0  0  0  0  0
  -37.0323   60.5398   64.5731 C   0  0  0  0  0  0  0  0  0  0  0  0
  -37.5905   61.7753   65.2344 C   0  0  0  0  0  0  0  0  0  0  0  0
  -38.6883   61.7269   65.8228 O   0  0  0  0  0  0  0  0  0  0  0  0
  -36.9736   62.8613   65.2024 O   0  0  0  0  0  0  0  0  0  0  0  0
  -36.1469   62.9178   64.7649 H   0  0  0  0  0  0  0  0  0  0  0  0
  -42.7364   59.1417   65.8678 C   0  0  0  0  0  0  0  0  0  0  0  0
  -43.1535   57.7749   65.3804 C   0  0  0  0  0  0  0  0  0  0  0  0
  -44.4981   57.5826   64.8141 C   0  0  0  0  0  0  0  0  0  0  0  0
  -45.5070   58.6973   64.9325 C   0  0  0  0  0  0  0  0  0  0  0  0
  -46.8961   58.1397   65.2228 C   0  0  0  0  0  0  0  0  0  0  0  0
  -47.9697   59.0806   64.6767 C   0  0  0  0  0  0  0  0  0  0  0  0
  -49.2879   58.3498   64.4259 C   0  0  0  0  0  0  0  0  0  0  0  0
  -49.8002   58.5702   63.0003 C   0  0  0  0  0  0  0  0  0  0  0  0
  -50.8521   59.6727   62.9106 C   0  0  0  0  0  0  0  0  0  0  0  0
  7  8  2  0  0  0
  7  6  1  0  0  0
  7  9  1  0  0  0
  6  5  1  0  0  0
  9 10  1  0  0  0
  5  4  1  0  0  0
  4  3  1  0  0  0
  3  2  1  0  0  0
  2  1  1  0  0  0
  1 11  1  0  0  0
 11 12  1  0  0  0
 12 13  2  0  0  0
 13 14  1  0  0  0
 14 15  1  0  0  0
 15 16  1  0  0  0
 16 17  1  0  0  0
 17 18  1  0  0  0
 18 19  1  0  0  0
M  END
> <minimizedAffinity>
-6.23571

> <CNNscore>
0.6762058735

> <CNNaffinity>
5.9276094437

> <CNN_VS>
4.0082840919

> <CNNaffinity_variance>
0.1170600504

$$$$
/media/chris/experiments/cd1a-new-docking/inputs/ligands/4x6d_2_ligand.pdb


 19 18  0  0  0  0  0  0  0  0999 V2000
  -46.6643   60.0069   65.9892 C   0  0  0  0  0  0  0  0  0  0  0  0
  -46.7061   58.8373   66.9631 C   0  0  0  0  0  0  0  0  0  0  0  0
  -45.7822   57.7039   66.5511 C   0  0  0  0  0  0  0  0  0  0  0  0
  -45.3467   57.8814   65.1059 C   0  0  0  0  0  0  0  0  0  0  0  0
  -43.8417   57.7034   65.0188 C   0  0  0  0  0  0  0  0  0  0  0  0
  -43.1125   59.0365   65.0720 C   0  0  0  0  0  0  0  0  0  0  0  0
  -41.7917   58.8500   65.7764 C   0  0  0  0  0  0  0  0  0  0  0  0
  -41.6896   59.1098   66.9913 O   0  0  0  0  0  0  0  0  0  0  0  0
  -40.7832   58.4405   65.1631 O   0  0  0  0  0  0  0  0  0  0  0  0
  -40.8399   58.2399   64.2495 H   0  0  0  0  0  0  0  0  0  0  0  0
  -48.0992   60.2985   65.5747 C   0  0  0  0  0  0  0  0  0  0  0  0
  -48.9632   59.0622   65.6424 C   0  0  0  0  0  0  0  0  0  0  0  0
  -50.0648   58.8900   64.6820 C   0  0  0  0  0  0  0  0  0  0  0  0
  -50.4472   60.0472   63.7936 C   0  0  0  0  0  0  0  0  0  0  0  0
  -50.4314   59.6302   62.3271 C   0  0  0  0  0  0  0  0  0  0  0  0
  -50.2225   58.1208   62.2074 C   0  0  0  0  0  0  0  0  0  0  0  0
  -50.8341   57.5653   60.9221 C   0  0  0  0  0  0  0  0  0  0  0  0
  -50.2987   58.2813   59.6796 C   0  0  0  0  0  0  0  0  0  0  0  0
  -49.3047   57.4353   58.8882 C   0  0  0  0  0  0  0  0  0  0  0  0
  7  8  2  0  0  0
  7  6  1  0  0  0
  7  9  1  0  0  0
  6  5  1  0  0  0
  9 10  1  0  0  0
  5  4  1  0  0  0
  4  3  1  0  0  0
  3  2  1  0  0  0
  2  1  1  0  0  0
  1 11  1  0  0  0
 11 12  1  0  0  0
 12 13  2  0  0  0
 13 14  1  0  0  0
 14 15  1  0  0  0
 15 16  1  0  0  0
 16 17  1  0  0  0
 17 18  1  0  0  0
 18 19  1  0  0  0
M  END
> <minimizedAffinity>
-6.61400

> <CNNscore>
0.6526494622

> <CNNaffinity>
6.2102112770

> <CNN_VS>
4.0530910492

> <CNNaffinity_variance>
0.2150667608

$$$$
