/media/chris/experiments/cd1a-new-docking/inputs/ligands/4x6d_2_ligand.pdb


 19 18  0  0  0  0  0  0  0  0999 V2000
  -46.1738   57.6127   66.2524 C   0  0  0  0  0  0  0  0  0  0  0  0
  -44.8496   57.5076   65.5086 C   0  0  0  0  0  0  0  0  0  0  0  0
  -43.9126   58.6614   65.8231 C   0  0  0  0  0  0  0  0  0  0  0  0
  -42.5035   58.1432   66.0594 C   0  0  0  0  0  0  0  0  0  0  0  0
  -41.6917   59.2211   66.7549 C   0  0  0  0  0  0  0  0  0  0  0  0
  -42.2989   60.6007   66.5554 C   0  0  0  0  0  0  0  0  0  0  0  0
  -41.4303   61.3910   65.6086 C   0  0  0  0  0  0  0  0  0  0  0  0
  -41.4938   61.1825   64.3814 O   0  0  0  0  0  0  0  0  0  0  0  0
  -40.6351   62.2575   66.0302 O   0  0  0  0  0  0  0  0  0  0  0  0
  -40.5728   62.4287   66.9493 H   0  0  0  0  0  0  0  0  0  0  0  0
  -47.0594   58.5649   65.4620 C   0  0  0  0  0  0  0  0  0  0  0  0
  -47.2036   59.8991   66.1540 C   0  0  0  0  0  0  0  0  0  0  0  0
  -48.5428   60.4759   66.3518 C   0  0  0  0  0  0  0  0  0  0  0  0
  -49.7235   59.8330   65.6683 C   0  0  0  0  0  0  0  0  0  0  0  0
  -50.2224   60.7035   64.5202 C   0  0  0  0  0  0  0  0  0  0  0  0
  -51.0521   59.8694   63.5444 C   0  0  0  0  0  0  0  0  0  0  0  0
  -50.2817   59.5693   62.2596 C   0  0  0  0  0  0  0  0  0  0  0  0
  -50.1531   58.0645   62.0096 C   0  0  0  0  0  0  0  0  0  0  0  0
  -51.0139   57.5798   60.8459 C   0  0  0  0  0  0  0  0  0  0  0  0
  7  8  2  0  0  0
  7  6  1  0  0  0
  7  9  1  0  0  0
  6  5  1  0  0  0
  9 10  1  0  0  0
  5  4  1  0  0  0
  4  3  1  0  0  0
  3  2  1  0  0  0
  2  1  1  0  0  0
  1 11  1  0  0  0
 11 12  1  0  0  0
 12 13  2  0  0  0
 13 14  1  0  0  0
 14 15  1  0  0  0
 15 16  1  0  0  0
 16 17  1  0  0  0
 17 18  1  0  0  0
 18 19  1  0  0  0
M  END
> <minimizedAffinity>
-6.77228

> <CNNscore>
0.8894374967

> <CNNaffinity>
6.3618602753

> <CNN_VS>
5.6584773064

> <CNNaffinity_variance>
0.4279714227

$$$$
/media/chris/experiments/cd1a-new-docking/inputs/ligands/4x6d_2_ligand.pdb


 19 18  0  0  0  0  0  0  0  0999 V2000
  -46.4562   58.0971   66.0494 C   0  0  0  0  0  0  0  0  0  0  0  0
  -45.9540   59.4448   66.5488 C   0  0  0  0  0  0  0  0  0  0  0  0
  -44.4559   59.6133   66.3608 C   0  0  0  0  0  0  0  0  0  0  0  0
  -44.1743   60.4805   65.1449 C   0  0  0  0  0  0  0  0  0  0  0  0
  -42.8355   60.0792   64.5522 C   0  0  0  0  0  0  0  0  0  0  0  0
  -41.9163   61.2771   64.3741 C   0  0  0  0  0  0  0  0  0  0  0  0
  -41.0396   61.4133   65.5941 C   0  0  0  0  0  0  0  0  0  0  0  0
  -40.7439   60.4061   66.2662 O   0  0  0  0  0  0  0  0  0  0  0  0
  -40.6008   62.5260   65.9549 O   0  0  0  0  0  0  0  0  0  0  0  0
  -40.8121   63.2949   65.4628 H   0  0  0  0  0  0  0  0  0  0  0  0
  -47.3347   58.3658   64.8362 C   0  0  0  0  0  0  0  0  0  0  0  0
  -48.7475   58.7181   65.2356 C   0  0  0  0  0  0  0  0  0  0  0  0
  -49.8271   58.6403   64.2388 C   0  0  0  0  0  0  0  0  0  0  0  0
  -49.4693   58.4242   62.7897 C   0  0  0  0  0  0  0  0  0  0  0  0
  -50.6800   58.6609   61.8936 C   0  0  0  0  0  0  0  0  0  0  0  0
  -50.7563   57.5850   60.8106 C   0  0  0  0  0  0  0  0  0  0  0  0
  -50.1694   58.0723   59.4868 C   0  0  0  0  0  0  0  0  0  0  0  0
  -48.8754   57.3358   59.1308 C   0  0  0  0  0  0  0  0  0  0  0  0
  -47.7686   58.2741   58.6569 C   0  0  0  0  0  0  0  0  0  0  0  0
  7  8  2  0  0  0
  7  6  1  0  0  0
  7  9  1  0  0  0
  6  5  1  0  0  0
  9 10  1  0  0  0
  5  4  1  0  0  0
  4  3  1  0  0  0
  3  2  1  0  0  0
  2  1  1  0  0  0
  1 11  1  0  0  0
 11 12  1  0  0  0
 12 13  2  0  0  0
 13 14  1  0  0  0
 14 15  1  0  0  0
 15 16  1  0  0  0
 16 17  1  0  0  0
 17 18  1  0  0  0
 18 19  1  0  0  0
M  END
> <minimizedAffinity>
-6.89095

> <CNNscore>
0.8391686082

> <CNNaffinity>
6.5713462830

> <CNN_VS>
5.5144677162

> <CNNaffinity_variance>
0.7394198179

$$$$
/media/chris/experiments/cd1a-new-docking/inputs/ligands/4x6d_2_ligand.pdb


 19 18  0  0  0  0  0  0  0  0999 V2000
  -44.8399   58.3638   64.5010 C   0  0  0  0  0  0  0  0  0  0  0  0
  -43.9816   57.2283   65.0411 C   0  0  0  0  0  0  0  0  0  0  0  0
  -43.0763   57.6730   66.1773 C   0  0  0  0  0  0  0  0  0  0  0  0
  -42.0776   58.7046   65.6790 C   0  0  0  0  0  0  0  0  0  0  0  0
  -41.6712   59.5974   66.8375 C   0  0  0  0  0  0  0  0  0  0  0  0
  -42.1554   61.0258   66.6448 C   0  0  0  0  0  0  0  0  0  0  0  0
  -41.2749   61.7140   65.6316 C   0  0  0  0  0  0  0  0  0  0  0  0
  -41.6872   61.9003   64.4701 O   0  0  0  0  0  0  0  0  0  0  0  0
  -40.1258   62.1027   65.9306 O   0  0  0  0  0  0  0  0  0  0  0  0
  -39.7979   61.9717   66.7985 H   0  0  0  0  0  0  0  0  0  0  0  0
  -45.8101   58.7587   65.6049 C   0  0  0  0  0  0  0  0  0  0  0  0
  -46.8073   57.6619   65.8918 C   0  0  0  0  0  0  0  0  0  0  0  0
  -48.1311   57.6951   65.2502 C   0  0  0  0  0  0  0  0  0  0  0  0
  -48.5459   58.9326   64.4945 C   0  0  0  0  0  0  0  0  0  0  0  0
  -49.7973   58.6648   63.6655 C   0  0  0  0  0  0  0  0  0  0  0  0
  -49.4156   58.1040   62.2957 C   0  0  0  0  0  0  0  0  0  0  0  0
  -50.6083   58.0825   61.3410 C   0  0  0  0  0  0  0  0  0  0  0  0
  -50.1720   58.2177   59.8799 C   0  0  0  0  0  0  0  0  0  0  0  0
  -48.6713   58.0162   59.6866 C   0  0  0  0  0  0  0  0  0  0  0  0
  7  8  2  0  0  0
  7  6  1  0  0  0
  7  9  1  0  0  0
  6  5  1  0  0  0
  9 10  1  0  0  0
  5  4  1  0  0  0
  4  3  1  0  0  0
  3  2  1  0  0  0
  2  1  1  0  0  0
  1 11  1  0  0  0
 11 12  1  0  0  0
 12 13  2  0  0  0
 13 14  1  0  0  0
 14 15  1  0  0  0
 15 16  1  0  0  0
 16 17  1  0  0  0
 17 18  1  0  0  0
 18 19  1  0  0  0
M  END
> <minimizedAffinity>
-6.75456

> <CNNscore>
0.8052009344

> <CNNaffinity>
6.2651586533

> <CNN_VS>
5.0447115898

> <CNNaffinity_variance>
0.1515801400

$$$$
/media/chris/experiments/cd1a-new-docking/inputs/ligands/4x6d_2_ligand.pdb


 19 18  0  0  0  0  0  0  0  0999 V2000
  -47.6751   58.7705   64.4398 C   0  0  0  0  0  0  0  0  0  0  0  0
  -47.6754   59.8634   65.4997 C   0  0  0  0  0  0  0  0  0  0  0  0
  -46.4669   59.7843   66.4172 C   0  0  0  0  0  0  0  0  0  0  0  0
  -45.7767   58.4394   66.2604 C   0  0  0  0  0  0  0  0  0  0  0  0
  -44.2976   58.6705   66.0086 C   0  0  0  0  0  0  0  0  0  0  0  0
  -43.9783   60.1478   65.8432 C   0  0  0  0  0  0  0  0  0  0  0  0
  -42.6496   60.4424   66.4939 C   0  0  0  0  0  0  0  0  0  0  0  0
  -41.5888   60.1843   65.8924 O   0  0  0  0  0  0  0  0  0  0  0  0
  -42.5854   60.9410   67.6376 O   0  0  0  0  0  0  0  0  0  0  0  0
  -43.3717   61.1420   68.1059 H   0  0  0  0  0  0  0  0  0  0  0  0
  -49.0878   58.2086   64.3727 C   0  0  0  0  0  0  0  0  0  0  0  0
  -50.1268   59.3040   64.3912 C   0  0  0  0  0  0  0  0  0  0  0  0
  -50.7278   59.7591   63.1275 C   0  0  0  0  0  0  0  0  0  0  0  0
  -50.1391   59.2800   61.8242 C   0  0  0  0  0  0  0  0  0  0  0  0
  -50.8314   58.0049   61.3555 C   0  0  0  0  0  0  0  0  0  0  0  0
  -50.3176   57.6000   59.9740 C   0  0  0  0  0  0  0  0  0  0  0  0
  -49.1165   58.4426   59.5479 C   0  0  0  0  0  0  0  0  0  0  0  0
  -48.2094   57.6903   58.5708 C   0  0  0  0  0  0  0  0  0  0  0  0
  -46.7249   57.9273   58.8351 C   0  0  0  0  0  0  0  0  0  0  0  0
  7  8  2  0  0  0
  7  6  1  0  0  0
  7  9  1  0  0  0
  6  5  1  0  0  0
  9 10  1  0  0  0
  5  4  1  0  0  0
  4  3  1  0  0  0
  3  2  1  0  0  0
  2  1  1  0  0  0
  1 11  1  0  0  0
 11 12  1  0  0  0
 12 13  2  0  0  0
 13 14  1  0  0  0
 14 15  1  0  0  0
 15 16  1  0  0  0
 16 17  1  0  0  0
 17 18  1  0  0  0
 18 19  1  0  0  0
M  END
> <minimizedAffinity>
-6.77818

> <CNNscore>
0.7705963850

> <CNNaffinity>
6.5557909012

> <CNN_VS>
5.0518689156

> <CNNaffinity_variance>
0.6506990790

$$$$
/media/chris/experiments/cd1a-new-docking/inputs/ligands/4x6d_2_ligand.pdb


 19 18  0  0  0  0  0  0  0  0999 V2000
  -45.1126   60.2528   65.5649 C   0  0  0  0  0  0  0  0  0  0  0  0
  -44.6359   58.9404   64.9580 C   0  0  0  0  0  0  0  0  0  0  0  0
  -43.4420   58.3581   65.6954 C   0  0  0  0  0  0  0  0  0  0  0  0
  -42.7479   59.4401   66.5062 C   0  0  0  0  0  0  0  0  0  0  0  0
  -41.2506   59.3462   66.2742 C   0  0  0  0  0  0  0  0  0  0  0  0
  -40.8027   60.2284   65.1197 C   0  0  0  0  0  0  0  0  0  0  0  0
  -40.0891   61.4382   65.6698 C   0  0  0  0  0  0  0  0  0  0  0  0
  -38.8550   61.4103   65.8429 O   0  0  0  0  0  0  0  0  0  0  0  0
  -40.7134   62.4795   65.9645 O   0  0  0  0  0  0  0  0  0  0  0  0
  -41.6414   62.5200   65.8417 H   0  0  0  0  0  0  0  0  0  0  0  0
  -46.5628   60.4423   65.1445 C   0  0  0  0  0  0  0  0  0  0  0  0
  -47.5111   60.2472   66.3031 C   0  0  0  0  0  0  0  0  0  0  0  0
  -48.9613   60.3695   66.0858 C   0  0  0  0  0  0  0  0  0  0  0  0
  -49.4599   60.9015   64.7656 C   0  0  0  0  0  0  0  0  0  0  0  0
  -50.8408   60.3403   64.4443 C   0  0  0  0  0  0  0  0  0  0  0  0
  -50.8385   59.6858   63.0630 C   0  0  0  0  0  0  0  0  0  0  0  0
  -49.8322   58.5390   62.9820 C   0  0  0  0  0  0  0  0  0  0  0  0
  -49.6664   58.0254   61.5495 C   0  0  0  0  0  0  0  0  0  0  0  0
  -50.9911   57.6269   60.9040 C   0  0  0  0  0  0  0  0  0  0  0  0
  7  8  2  0  0  0
  7  6  1  0  0  0
  7  9  1  0  0  0
  6  5  1  0  0  0
  9 10  1  0  0  0
  5  4  1  0  0  0
  4  3  1  0  0  0
  3  2  1  0  0  0
  2  1  1  0  0  0
  1 11  1  0  0  0
 11 12  1  0  0  0
 12 13  2  0  0  0
 13 14  1  0  0  0
 14 15  1  0  0  0
 15 16  1  0  0  0
 16 17  1  0  0  0
 17 18  1  0  0  0
 18 19  1  0  0  0
M  END
> <minimizedAffinity>
-6.86905

> <CNNscore>
0.7529616952

> <CNNaffinity>
6.0468664169

> <CNN_VS>
4.5530586243

> <CNNaffinity_variance>
0.3212647140

$$$$
/media/chris/experiments/cd1a-new-docking/inputs/ligands/4x6d_2_ligand.pdb


 19 18  0  0  0  0  0  0  0  0999 V2000
  -42.5277   60.0779   66.9205 C   0  0  0  0  0  0  0  0  0  0  0  0
  -41.2265   59.4210   66.4808 C   0  0  0  0  0  0  0  0  0  0  0  0
  -40.6927   59.9999   65.1815 C   0  0  0  0  0  0  0  0  0  0  0  0
  -39.9945   58.9184   64.3734 C   0  0  0  0  0  0  0  0  0  0  0  0
  -39.1333   59.5758   63.3101 C   0  0  0  0  0  0  0  0  0  0  0  0
  -39.8976   60.6476   62.5492 C   0  0  0  0  0  0  0  0  0  0  0  0
  -39.1514   60.9811   61.2814 C   0  0  0  0  0  0  0  0  0  0  0  0
  -39.7439   60.9630   60.1849 O   0  0  0  0  0  0  0  0  0  0  0  0
  -37.9372   61.2743   61.3030 O   0  0  0  0  0  0  0  0  0  0  0  0
  -37.4742   61.2932   62.1174 H   0  0  0  0  0  0  0  0  0  0  0  0
  -43.6182   59.5920   65.9770 C   0  0  0  0  0  0  0  0  0  0  0  0
  -43.6947   58.0845   65.9397 C   0  0  0  0  0  0  0  0  0  0  0  0
  -44.8449   57.4293   65.2970 C   0  0  0  0  0  0  0  0  0  0  0  0
  -46.0275   58.2693   64.8843 C   0  0  0  0  0  0  0  0  0  0  0  0
  -47.1709   58.1186   65.8816 C   0  0  0  0  0  0  0  0  0  0  0  0
  -48.4785   57.8215   65.1478 C   0  0  0  0  0  0  0  0  0  0  0  0
  -48.9899   59.0432   64.3860 C   0  0  0  0  0  0  0  0  0  0  0  0
  -50.0495   58.6658   63.3476 C   0  0  0  0  0  0  0  0  0  0  0  0
  -50.3882   59.8135   62.3999 C   0  0  0  0  0  0  0  0  0  0  0  0
  7  8  2  0  0  0
  7  6  1  0  0  0
  7  9  1  0  0  0
  6  5  1  0  0  0
  9 10  1  0  0  0
  5  4  1  0  0  0
  4  3  1  0  0  0
  3  2  1  0  0  0
  2  1  1  0  0  0
  1 11  1  0  0  0
 11 12  1  0  0  0
 12 13  2  0  0  0
 13 14  1  0  0  0
 14 15  1  0  0  0
 15 16  1  0  0  0
 16 17  1  0  0  0
 17 18  1  0  0  0
 18 19  1  0  0  0
M  END
> <minimizedAffinity>
-6.52823

> <CNNscore>
0.6761238575

> <CNNaffinity>
6.0975375175

> <CNN_VS>
4.1226906776

> <CNNaffinity_variance>
0.4398233294

$$$$
/media/chris/experiments/cd1a-new-docking/inputs/ligands/4x6d_2_ligand.pdb


 19 18  0  0  0  0  0  0  0  0999 V2000
  -43.6713   60.3056   65.2728 C   0  0  0  0  0  0  0  0  0  0  0  0
  -43.1612   60.1032   66.6929 C   0  0  0  0  0  0  0  0  0  0  0  0
  -41.8967   59.2623   66.7424 C   0  0  0  0  0  0  0  0  0  0  0  0
  -41.4822   58.8555   65.3380 C   0  0  0  0  0  0  0  0  0  0  0  0
  -39.9770   59.0024   65.2060 C   0  0  0  0  0  0  0  0  0  0  0  0
  -39.5391   59.0306   63.7503 C   0  0  0  0  0  0  0  0  0  0  0  0
  -38.3558   58.1121   63.5720 C   0  0  0  0  0  0  0  0  0  0  0  0
  -37.5839   57.8957   64.5264 O   0  0  0  0  0  0  0  0  0  0  0  0
  -38.1248   57.5595   62.4756 O   0  0  0  0  0  0  0  0  0  0  0  0
  -38.6935   57.7097   61.7462 H   0  0  0  0  0  0  0  0  0  0  0  0
  -45.1833   60.1378   65.3097 C   0  0  0  0  0  0  0  0  0  0  0  0
  -45.5822   58.6864   65.4280 C   0  0  0  0  0  0  0  0  0  0  0  0
  -46.9365   58.2687   65.0321 C   0  0  0  0  0  0  0  0  0  0  0  0
  -47.9669   59.3264   64.7253 C   0  0  0  0  0  0  0  0  0  0  0  0
  -49.3151   58.6900   64.4056 C   0  0  0  0  0  0  0  0  0  0  0  0
  -50.2900   59.7466   63.8863 C   0  0  0  0  0  0  0  0  0  0  0  0
  -50.8493   59.3743   62.5141 C   0  0  0  0  0  0  0  0  0  0  0  0
  -50.2917   58.0394   62.0136 C   0  0  0  0  0  0  0  0  0  0  0  0
  -51.0053   57.5279   60.7649 C   0  0  0  0  0  0  0  0  0  0  0  0
  7  8  2  0  0  0
  7  6  1  0  0  0
  7  9  1  0  0  0
  6  5  1  0  0  0
  9 10  1  0  0  0
  5  4  1  0  0  0
  4  3  1  0  0  0
  3  2  1  0  0  0
  2  1  1  0  0  0
  1 11  1  0  0  0
 11 12  1  0  0  0
 12 13  2  0  0  0
 13 14  1  0  0  0
 14 15  1  0  0  0
 15 16  1  0  0  0
 16 17  1  0  0  0
 17 18  1  0  0  0
 18 19  1  0  0  0
M  END
> <minimizedAffinity>
-6.52874

> <CNNscore>
0.6124442816

> <CNNaffinity>
6.0762357712

> <CNN_VS>
3.7213559151

> <CNNaffinity_variance>
0.2614786625

$$$$
/media/chris/experiments/cd1a-new-docking/inputs/ligands/4x6d_2_ligand.pdb


 19 18  0  0  0  0  0  0  0  0999 V2000
  -43.6672   58.0681   65.2499 C   0  0  0  0  0  0  0  0  0  0  0  0
  -43.6232   59.5880   65.3270 C   0  0  0  0  0  0  0  0  0  0  0  0
  -43.3820   60.0920   66.7398 C   0  0  0  0  0  0  0  0  0  0  0  0
  -42.1784   61.0195   66.7674 C   0  0  0  0  0  0  0  0  0  0  0  0
  -40.9724   60.2789   66.2183 C   0  0  0  0  0  0  0  0  0  0  0  0
  -40.0601   61.1992   65.4229 C   0  0  0  0  0  0  0  0  0  0  0  0
  -39.9826   60.7083   63.9986 C   0  0  0  0  0  0  0  0  0  0  0  0
  -38.8812   60.3983   63.5040 O   0  0  0  0  0  0  0  0  0  0  0  0
  -41.0079   60.6078   63.2919 O   0  0  0  0  0  0  0  0  0  0  0  0
  -41.8449   60.8361   63.6456 H   0  0  0  0  0  0  0  0  0  0  0  0
  -45.0330   57.6850   64.6989 C   0  0  0  0  0  0  0  0  0  0  0  0
  -45.9964   57.3135   65.8005 C   0  0  0  0  0  0  0  0  0  0  0  0
  -47.4061   57.7242   65.7044 C   0  0  0  0  0  0  0  0  0  0  0  0
  -47.8130   58.6918   64.6216 C   0  0  0  0  0  0  0  0  0  0  0  0
  -49.2717   58.4820   64.2303 C   0  0  0  0  0  0  0  0  0  0  0  0
  -49.9439   59.8260   63.9504 C   0  0  0  0  0  0  0  0  0  0  0  0
  -50.7953   59.7795   62.6826 C   0  0  0  0  0  0  0  0  0  0  0  0
  -50.5656   58.4914   61.8880 C   0  0  0  0  0  0  0  0  0  0  0  0
  -49.8399   58.7298   60.5664 C   0  0  0  0  0  0  0  0  0  0  0  0
  7  8  2  0  0  0
  7  6  1  0  0  0
  7  9  1  0  0  0
  6  5  1  0  0  0
  9 10  1  0  0  0
  5  4  1  0  0  0
  4  3  1  0  0  0
  3  2  1  0  0  0
  2  1  1  0  0  0
  1 11  1  0  0  0
 11 12  1  0  0  0
 12 13  2  0  0  0
 13 14  1  0  0  0
 14 15  1  0  0  0
 15 16  1  0  0  0
 16 17  1  0  0  0
 17 18  1  0  0  0
 18 19  1  0  0  0
M  END
> <minimizedAffinity>
-6.14780

> <CNNscore>
0.6020036936

> <CNNaffinity>
6.0170965195

> <CNN_VS>
3.6223142147

> <CNNaffinity_variance>
0.2397813052

$$$$
/media/chris/experiments/cd1a-new-docking/inputs/ligands/4x6d_2_ligand.pdb


 19 18  0  0  0  0  0  0  0  0999 V2000
  -42.9078   60.1793   66.8009 C   0  0  0  0  0  0  0  0  0  0  0  0
  -41.9798   58.9725   66.8121 C   0  0  0  0  0  0  0  0  0  0  0  0
  -41.6011   58.5169   65.4130 C   0  0  0  0  0  0  0  0  0  0  0  0
  -40.8521   59.6219   64.6865 C   0  0  0  0  0  0  0  0  0  0  0  0
  -39.4932   59.8072   65.3373 C   0  0  0  0  0  0  0  0  0  0  0  0
  -38.6739   60.8789   64.6360 C   0  0  0  0  0  0  0  0  0  0  0  0
  -37.7768   61.5539   65.6435 C   0  0  0  0  0  0  0  0  0  0  0  0
  -37.4020   60.9357   66.6589 O   0  0  0  0  0  0  0  0  0  0  0  0
  -37.3990   62.7342   65.4854 O   0  0  0  0  0  0  0  0  0  0  0  0
  -37.6701   63.2155   64.7286 H   0  0  0  0  0  0  0  0  0  0  0  0
  -44.3063   59.6685   66.4863 C   0  0  0  0  0  0  0  0  0  0  0  0
  -44.8930   60.3542   65.2758 C   0  0  0  0  0  0  0  0  0  0  0  0
  -46.3262   60.6870   65.2506 C   0  0  0  0  0  0  0  0  0  0  0  0
  -47.2218   60.1428   66.3351 C   0  0  0  0  0  0  0  0  0  0  0  0
  -48.6268   60.7232   66.2168 C   0  0  0  0  0  0  0  0  0  0  0  0
  -49.5972   59.6609   65.7006 C   0  0  0  0  0  0  0  0  0  0  0  0
  -50.7803   60.2861   64.9631 C   0  0  0  0  0  0  0  0  0  0  0  0
  -50.7458   59.9776   63.4641 C   0  0  0  0  0  0  0  0  0  0  0  0
  -50.0749   58.6436   63.1471 C   0  0  0  0  0  0  0  0  0  0  0  0
  7  8  2  0  0  0
  7  6  1  0  0  0
  7  9  1  0  0  0
  6  5  1  0  0  0
  9 10  1  0  0  0
  5  4  1  0  0  0
  4  3  1  0  0  0
  3  2  1  0  0  0
  2  1  1  0  0  0
  1 11  1  0  0  0
 11 12  1  0  0  0
 12 13  2  0  0  0
 13 14  1  0  0  0
 14 15  1  0  0  0
 15 16  1  0  0  0
 16 17  1  0  0  0
 17 18  1  0  0  0
 18 19  1  0  0  0
M  END
> <minimizedAffinity>
-6.59694

> <CNNscore>
0.5772690177

> <CNNaffinity>
5.7569093704

> <CNN_VS>
3.3232853413

> <CNNaffinity_variance>
0.2242955416

$$$$
