/media/chris/experiments/cd1a-new-docking/inputs/ligands/4x6d_2_ligand.pdb


 19 18  0  0  0  0  0  0  0  0999 V2000
  -46.3477   58.6728   65.3829 C   0  0  0  0  0  0  0  0  0  0  0  0
  -45.0599   58.1816   66.0295 C   0  0  0  0  0  0  0  0  0  0  0  0
  -43.8645   58.2858   65.0977 C   0  0  0  0  0  0  0  0  0  0  0  0
  -42.5809   57.9914   65.8565 C   0  0  0  0  0  0  0  0  0  0  0  0
  -41.4448   58.7777   65.2279 C   0  0  0  0  0  0  0  0  0  0  0  0
  -40.8988   59.8343   66.1752 C   0  0  0  0  0  0  0  0  0  0  0  0
  -40.4679   61.0393   65.3766 C   0  0  0  0  0  0  0  0  0  0  0  0
  -40.3762   60.9659   64.1356 O   0  0  0  0  0  0  0  0  0  0  0  0
  -40.1927   62.1219   65.9361 O   0  0  0  0  0  0  0  0  0  0  0  0
  -40.2555   62.1969   66.8679 H   0  0  0  0  0  0  0  0  0  0  0  0
  -46.7022   59.9999   66.0379 C   0  0  0  0  0  0  0  0  0  0  0  0
  -47.1333   61.0284   65.0200 C   0  0  0  0  0  0  0  0  0  0  0  0
  -48.5603   61.3579   64.8772 C   0  0  0  0  0  0  0  0  0  0  0  0
  -49.5815   60.5085   65.5913 C   0  0  0  0  0  0  0  0  0  0  0  0
  -50.7640   60.2039   64.6783 C   0  0  0  0  0  0  0  0  0  0  0  0
  -50.2893   60.0342   63.2352 C   0  0  0  0  0  0  0  0  0  0  0  0
  -50.1828   58.5610   62.8443 C   0  0  0  0  0  0  0  0  0  0  0  0
  -50.5574   58.3311   61.3779 C   0  0  0  0  0  0  0  0  0  0  0  0
  -49.9010   57.0872   60.7847 C   0  0  0  0  0  0  0  0  0  0  0  0
  7  8  2  0  0  0
  7  6  1  0  0  0
  7  9  1  0  0  0
  6  5  1  0  0  0
  9 10  1  0  0  0
  5  4  1  0  0  0
  4  3  1  0  0  0
  3  2  1  0  0  0
  2  1  1  0  0  0
  1 11  1  0  0  0
 11 12  1  0  0  0
 12 13  2  0  0  0
 13 14  1  0  0  0
 14 15  1  0  0  0
 15 16  1  0  0  0
 16 17  1  0  0  0
 17 18  1  0  0  0
 18 19  1  0  0  0
M  END
> <minimizedAffinity>
-6.61206

> <CNNscore>
0.8166898489

> <CNNaffinity>
6.2841558456

> <CNN_VS>
5.1322064400

> <CNNaffinity_variance>
0.4296470284

$$$$
/media/chris/experiments/cd1a-new-docking/inputs/ligands/4x6d_2_ligand.pdb


 19 18  0  0  0  0  0  0  0  0999 V2000
  -50.8403   59.7058   62.5446 C   0  0  0  0  0  0  0  0  0  0  0  0
  -50.2571   58.3368   62.2228 C   0  0  0  0  0  0  0  0  0  0  0  0
  -50.8110   57.7571   60.9324 C   0  0  0  0  0  0  0  0  0  0  0  0
  -50.0143   58.2685   59.7434 C   0  0  0  0  0  0  0  0  0  0  0  0
  -48.6535   57.5957   59.7353 C   0  0  0  0  0  0  0  0  0  0  0  0
  -47.8423   57.9794   58.5079 C   0  0  0  0  0  0  0  0  0  0  0  0
  -47.8395   56.8254   57.5364 C   0  0  0  0  0  0  0  0  0  0  0  0
  -47.9202   55.6547   57.9572 O   0  0  0  0  0  0  0  0  0  0  0  0
  -47.7525   57.0162   56.3049 O   0  0  0  0  0  0  0  0  0  0  0  0
  -47.6908   57.8889   55.9693 H   0  0  0  0  0  0  0  0  0  0  0  0
  -50.7002   59.9128   64.0457 C   0  0  0  0  0  0  0  0  0  0  0  0
  -49.8831   58.8173   64.6876 C   0  0  0  0  0  0  0  0  0  0  0  0
  -48.9016   59.1566   65.7302 C   0  0  0  0  0  0  0  0  0  0  0  0
  -48.5743   60.6071   65.9814 C   0  0  0  0  0  0  0  0  0  0  0  0
  -47.2595   60.9880   65.3099 C   0  0  0  0  0  0  0  0  0  0  0  0
  -46.1876   59.9407   65.6112 C   0  0  0  0  0  0  0  0  0  0  0  0
  -44.8040   60.3996   65.1533 C   0  0  0  0  0  0  0  0  0  0  0  0
  -43.8379   59.2234   64.9897 C   0  0  0  0  0  0  0  0  0  0  0  0
  -44.5229   57.9583   64.4793 C   0  0  0  0  0  0  0  0  0  0  0  0
  7  8  2  0  0  0
  7  6  1  0  0  0
  7  9  1  0  0  0
  6  5  1  0  0  0
  9 10  1  0  0  0
  5  4  1  0  0  0
  4  3  1  0  0  0
  3  2  1  0  0  0
  2  1  1  0  0  0
  1 11  1  0  0  0
 11 12  1  0  0  0
 12 13  2  0  0  0
 13 14  1  0  0  0
 14 15  1  0  0  0
 15 16  1  0  0  0
 16 17  1  0  0  0
 17 18  1  0  0  0
 18 19  1  0  0  0
M  END
> <minimizedAffinity>
-7.27169

> <CNNscore>
0.7088363171

> <CNNaffinity>
6.3694286346

> <CNN_VS>
4.5148825645

> <CNNaffinity_variance>
0.4088493288

$$$$
/media/chris/experiments/cd1a-new-docking/inputs/ligands/4x6d_2_ligand.pdb


 19 18  0  0  0  0  0  0  0  0999 V2000
  -50.1477   58.5053   63.0416 C   0  0  0  0  0  0  0  0  0  0  0  0
  -50.0856   58.8854   61.5687 C   0  0  0  0  0  0  0  0  0  0  0  0
  -50.7033   57.8289   60.6686 C   0  0  0  0  0  0  0  0  0  0  0  0
  -50.0584   57.8699   59.2929 C   0  0  0  0  0  0  0  0  0  0  0  0
  -48.5492   57.8819   59.4557 C   0  0  0  0  0  0  0  0  0  0  0  0
  -47.8384   57.9745   58.1148 C   0  0  0  0  0  0  0  0  0  0  0  0
  -48.1164   56.7228   57.3201 C   0  0  0  0  0  0  0  0  0  0  0  0
  -47.7994   55.6082   57.7795 O   0  0  0  0  0  0  0  0  0  0  0  0
  -48.6594   56.7768   56.1963 O   0  0  0  0  0  0  0  0  0  0  0  0
  -48.9050   57.6053   55.8340 H   0  0  0  0  0  0  0  0  0  0  0  0
  -48.7154   58.4490   63.5525 C   0  0  0  0  0  0  0  0  0  0  0  0
  -48.6570   58.0716   65.0132 C   0  0  0  0  0  0  0  0  0  0  0  0
  -47.3710   58.1192   65.7269 C   0  0  0  0  0  0  0  0  0  0  0  0
  -46.1041   58.3304   64.9365 C   0  0  0  0  0  0  0  0  0  0  0  0
  -44.9852   57.4373   65.4611 C   0  0  0  0  0  0  0  0  0  0  0  0
  -43.6233   58.0006   65.0557 C   0  0  0  0  0  0  0  0  0  0  0  0
  -42.6379   57.9933   66.2235 C   0  0  0  0  0  0  0  0  0  0  0  0
  -41.8919   59.3242   66.3490 C   0  0  0  0  0  0  0  0  0  0  0  0
  -42.6893   60.3834   67.1055 C   0  0  0  0  0  0  0  0  0  0  0  0
  7  8  2  0  0  0
  7  6  1  0  0  0
  7  9  1  0  0  0
  6  5  1  0  0  0
  9 10  1  0  0  0
  5  4  1  0  0  0
  4  3  1  0  0  0
  3  2  1  0  0  0
  2  1  1  0  0  0
  1 11  1  0  0  0
 11 12  1  0  0  0
 12 13  2  0  0  0
 13 14  1  0  0  0
 14 15  1  0  0  0
 15 16  1  0  0  0
 16 17  1  0  0  0
 17 18  1  0  0  0
 18 19  1  0  0  0
M  END
> <minimizedAffinity>
-7.31617

> <CNNscore>
0.6953648925

> <CNNaffinity>
6.4987311363

> <CNN_VS>
4.5189895630

> <CNNaffinity_variance>
0.4591780603

$$$$
/media/chris/experiments/cd1a-new-docking/inputs/ligands/4x6d_2_ligand.pdb


 19 18  0  0  0  0  0  0  0  0999 V2000
  -41.2418   59.5863   65.9814 C   0  0  0  0  0  0  0  0  0  0  0  0
  -40.7692   58.9656   64.6740 C   0  0  0  0  0  0  0  0  0  0  0  0
  -39.3379   59.3446   64.3339 C   0  0  0  0  0  0  0  0  0  0  0  0
  -38.5814   58.1299   63.8219 C   0  0  0  0  0  0  0  0  0  0  0  0
  -38.2462   58.3392   62.3562 C   0  0  0  0  0  0  0  0  0  0  0  0
  -38.0817   59.8130   62.0205 C   0  0  0  0  0  0  0  0  0  0  0  0
  -38.5228   60.0482   60.5972 C   0  0  0  0  0  0  0  0  0  0  0  0
  -39.4230   60.8746   60.3509 O   0  0  0  0  0  0  0  0  0  0  0  0
  -38.0045   59.4239   59.6474 O   0  0  0  0  0  0  0  0  0  0  0  0
  -37.3264   58.7986   59.8123 H   0  0  0  0  0  0  0  0  0  0  0  0
  -42.5965   58.9740   66.3063 C   0  0  0  0  0  0  0  0  0  0  0  0
  -42.8179   57.6791   65.5621 C   0  0  0  0  0  0  0  0  0  0  0  0
  -44.1814   57.2881   65.1706 C   0  0  0  0  0  0  0  0  0  0  0  0
  -45.3501   58.0745   65.7092 C   0  0  0  0  0  0  0  0  0  0  0  0
  -46.5134   57.1488   66.0481 C   0  0  0  0  0  0  0  0  0  0  0  0
  -47.8216   57.7195   65.5007 C   0  0  0  0  0  0  0  0  0  0  0  0
  -47.5717   58.8385   64.4907 C   0  0  0  0  0  0  0  0  0  0  0  0
  -48.6737   59.9002   64.5312 C   0  0  0  0  0  0  0  0  0  0  0  0
  -48.2428   61.1770   65.2482 C   0  0  0  0  0  0  0  0  0  0  0  0
  7  8  2  0  0  0
  7  6  1  0  0  0
  7  9  1  0  0  0
  6  5  1  0  0  0
  9 10  1  0  0  0
  5  4  1  0  0  0
  4  3  1  0  0  0
  3  2  1  0  0  0
  2  1  1  0  0  0
  1 11  1  0  0  0
 11 12  1  0  0  0
 12 13  2  0  0  0
 13 14  1  0  0  0
 14 15  1  0  0  0
 15 16  1  0  0  0
 16 17  1  0  0  0
 17 18  1  0  0  0
 18 19  1  0  0  0
M  END
> <minimizedAffinity>
-6.31409

> <CNNscore>
0.6927579641

> <CNNaffinity>
6.0770115852

> <CNN_VS>
4.2098979950

> <CNNaffinity_variance>
0.4254612923

$$$$
/media/chris/experiments/cd1a-new-docking/inputs/ligands/4x6d_2_ligand.pdb


 19 18  0  0  0  0  0  0  0  0999 V2000
  -49.1454   60.0137   65.9625 C   0  0  0  0  0  0  0  0  0  0  0  0
  -48.7007   61.1652   65.0713 C   0  0  0  0  0  0  0  0  0  0  0  0
  -47.1917   61.2234   64.9056 C   0  0  0  0  0  0  0  0  0  0  0  0
  -46.5253   60.1965   65.8064 C   0  0  0  0  0  0  0  0  0  0  0  0
  -45.1104   59.9524   65.3137 C   0  0  0  0  0  0  0  0  0  0  0  0
  -44.1814   59.5454   66.4465 C   0  0  0  0  0  0  0  0  0  0  0  0
  -43.0135   60.4988   66.4951 C   0  0  0  0  0  0  0  0  0  0  0  0
  -42.4789   60.8858   65.4376 O   0  0  0  0  0  0  0  0  0  0  0  0
  -42.5601   60.9119   67.5834 O   0  0  0  0  0  0  0  0  0  0  0  0
  -42.9484   60.6323   68.3891 H   0  0  0  0  0  0  0  0  0  0  0  0
  -50.2226   59.2497   65.2063 C   0  0  0  0  0  0  0  0  0  0  0  0
  -50.8821   60.1076   64.1534 C   0  0  0  0  0  0  0  0  0  0  0  0
  -50.9438   59.6337   62.7616 C   0  0  0  0  0  0  0  0  0  0  0  0
  -50.1577   58.4072   62.3718 C   0  0  0  0  0  0  0  0  0  0  0  0
  -50.7511   57.7591   61.1258 C   0  0  0  0  0  0  0  0  0  0  0  0
  -50.1198   58.3541   59.8672 C   0  0  0  0  0  0  0  0  0  0  0  0
  -49.2559   57.3316   59.1302 C   0  0  0  0  0  0  0  0  0  0  0  0
  -48.1394   58.0021   58.3257 C   0  0  0  0  0  0  0  0  0  0  0  0
  -46.7655   57.8474   58.9727 C   0  0  0  0  0  0  0  0  0  0  0  0
  7  8  2  0  0  0
  7  6  1  0  0  0
  7  9  1  0  0  0
  6  5  1  0  0  0
  9 10  1  0  0  0
  5  4  1  0  0  0
  4  3  1  0  0  0
  3  2  1  0  0  0
  2  1  1  0  0  0
  1 11  1  0  0  0
 11 12  1  0  0  0
 12 13  2  0  0  0
 13 14  1  0  0  0
 14 15  1  0  0  0
 15 16  1  0  0  0
 16 17  1  0  0  0
 17 18  1  0  0  0
 18 19  1  0  0  0
M  END
> <minimizedAffinity>
-7.23675

> <CNNscore>
0.6912137270

> <CNNaffinity>
6.2608809471

> <CNN_VS>
4.3276066780

> <CNNaffinity_variance>
0.3581686914

$$$$
/media/chris/experiments/cd1a-new-docking/inputs/ligands/4x6d_2_ligand.pdb


 19 18  0  0  0  0  0  0  0  0999 V2000
  -45.0158   58.0648   64.6032 C   0  0  0  0  0  0  0  0  0  0  0  0
  -44.2240   57.9427   65.8978 C   0  0  0  0  0  0  0  0  0  0  0  0
  -42.7268   57.8488   65.6574 C   0  0  0  0  0  0  0  0  0  0  0  0
  -41.9891   58.8273   66.5564 C   0  0  0  0  0  0  0  0  0  0  0  0
  -42.6617   60.1850   66.4647 C   0  0  0  0  0  0  0  0  0  0  0  0
  -42.2933   60.9109   65.1805 C   0  0  0  0  0  0  0  0  0  0  0  0
  -40.8925   61.4564   65.3052 C   0  0  0  0  0  0  0  0  0  0  0  0
  -39.9543   60.9152   64.6881 O   0  0  0  0  0  0  0  0  0  0  0  0
  -40.6454   62.4474   66.0246 O   0  0  0  0  0  0  0  0  0  0  0  0
  -41.3372   62.8680   66.4964 H   0  0  0  0  0  0  0  0  0  0  0  0
  -46.4201   58.5173   64.9758 C   0  0  0  0  0  0  0  0  0  0  0  0
  -46.3963   59.6546   65.9686 C   0  0  0  0  0  0  0  0  0  0  0  0
  -47.3307   60.7801   65.8092 C   0  0  0  0  0  0  0  0  0  0  0  0
  -48.1398   60.8841   64.5407 C   0  0  0  0  0  0  0  0  0  0  0  0
  -49.6250   61.0207   64.8574 C   0  0  0  0  0  0  0  0  0  0  0  0
  -50.4039   59.8477   64.2622 C   0  0  0  0  0  0  0  0  0  0  0  0
  -50.1651   59.7150   62.7589 C   0  0  0  0  0  0  0  0  0  0  0  0
  -49.9190   58.2615   62.3464 C   0  0  0  0  0  0  0  0  0  0  0  0
  -50.8122   57.8117   61.1931 C   0  0  0  0  0  0  0  0  0  0  0  0
  7  8  2  0  0  0
  7  6  1  0  0  0
  7  9  1  0  0  0
  6  5  1  0  0  0
  9 10  1  0  0  0
  5  4  1  0  0  0
  4  3  1  0  0  0
  3  2  1  0  0  0
  2  1  1  0  0  0
  1 11  1  0  0  0
 11 12  1  0  0  0
 12 13  2  0  0  0
 13 14  1  0  0  0
 14 15  1  0  0  0
 15 16  1  0  0  0
 16 17  1  0  0  0
 17 18  1  0  0  0
 18 19  1  0  0  0
M  END
> <minimizedAffinity>
-6.58310

> <CNNscore>
0.6256393194

> <CNNaffinity>
6.0261445045

> <CNN_VS>
3.7701928616

> <CNNaffinity_variance>
0.2151353806

$$$$
/media/chris/experiments/cd1a-new-docking/inputs/ligands/4x6d_2_ligand.pdb


 19 18  0  0  0  0  0  0  0  0999 V2000
  -50.8523   60.3914   65.0857 C   0  0  0  0  0  0  0  0  0  0  0  0
  -50.8418   60.0838   63.5947 C   0  0  0  0  0  0  0  0  0  0  0  0
  -50.0107   58.8570   63.2596 C   0  0  0  0  0  0  0  0  0  0  0  0
  -50.5623   58.1727   62.0197 C   0  0  0  0  0  0  0  0  0  0  0  0
  -49.5573   58.3129   60.8906 C   0  0  0  0  0  0  0  0  0  0  0  0
  -49.6301   57.1426   59.9227 C   0  0  0  0  0  0  0  0  0  0  0  0
  -48.2434   56.8328   59.4161 C   0  0  0  0  0  0  0  0  0  0  0  0
  -48.0097   55.7396   58.8647 O   0  0  0  0  0  0  0  0  0  0  0  0
  -47.3102   57.6539   59.5412 O   0  0  0  0  0  0  0  0  0  0  0  0
  -47.4660   58.4810   59.9530 H   0  0  0  0  0  0  0  0  0  0  0  0
  -49.7118   59.6050   65.7154 C   0  0  0  0  0  0  0  0  0  0  0  0
  -48.6343   60.5159   66.2530 C   0  0  0  0  0  0  0  0  0  0  0  0
  -47.2353   60.3078   65.8469 C   0  0  0  0  0  0  0  0  0  0  0  0
  -46.8749   59.0605   65.0797 C   0  0  0  0  0  0  0  0  0  0  0  0
  -46.5047   57.9289   66.0322 C   0  0  0  0  0  0  0  0  0  0  0  0
  -45.1495   57.3351   65.6485 C   0  0  0  0  0  0  0  0  0  0  0  0
  -44.4822   58.1279   64.5255 C   0  0  0  0  0  0  0  0  0  0  0  0
  -43.2731   58.9212   65.0275 C   0  0  0  0  0  0  0  0  0  0  0  0
  -43.3659   60.4111   64.7089 C   0  0  0  0  0  0  0  0  0  0  0  0
  7  8  2  0  0  0
  7  6  1  0  0  0
  7  9  1  0  0  0
  6  5  1  0  0  0
  9 10  1  0  0  0
  5  4  1  0  0  0
  4  3  1  0  0  0
  3  2  1  0  0  0
  2  1  1  0  0  0
  1 11  1  0  0  0
 11 12  1  0  0  0
 12 13  2  0  0  0
 13 14  1  0  0  0
 14 15  1  0  0  0
 15 16  1  0  0  0
 16 17  1  0  0  0
 17 18  1  0  0  0
 18 19  1  0  0  0
M  END
> <minimizedAffinity>
-6.78881

> <CNNscore>
0.6000459194

> <CNNaffinity>
6.2345867157

> <CNN_VS>
3.7410383224

> <CNNaffinity_variance>
0.4779523313

$$$$
/media/chris/experiments/cd1a-new-docking/inputs/ligands/4x6d_2_ligand.pdb


 19 18  0  0  0  0  0  0  0  0999 V2000
  -37.7385   57.6675   62.3266 C   0  0  0  0  0  0  0  0  0  0  0  0
  -38.2765   59.0458   61.9679 C   0  0  0  0  0  0  0  0  0  0  0  0
  -39.2168   59.5969   63.0263 C   0  0  0  0  0  0  0  0  0  0  0  0
  -39.3750   58.5963   64.1593 C   0  0  0  0  0  0  0  0  0  0  0  0
  -39.7784   59.3387   65.4205 C   0  0  0  0  0  0  0  0  0  0  0  0
  -41.2475   59.7298   65.3987 C   0  0  0  0  0  0  0  0  0  0  0  0
  -41.4107   61.0764   66.0586 C   0  0  0  0  0  0  0  0  0  0  0  0
  -42.2343   61.2233   66.9827 O   0  0  0  0  0  0  0  0  0  0  0  0
  -40.7351   62.0620   65.6941 O   0  0  0  0  0  0  0  0  0  0  0  0
  -40.1108   61.9716   65.0012 H   0  0  0  0  0  0  0  0  0  0  0  0
  -36.9022   57.1904   61.1481 C   0  0  0  0  0  0  0  0  0  0  0  0
  -36.6303   58.3057   60.1673 C   0  0  0  0  0  0  0  0  0  0  0  0
  -36.1028   57.9877   58.8309 C   0  0  0  0  0  0  0  0  0  0  0  0
  -35.6383   56.5819   58.5442 C   0  0  0  0  0  0  0  0  0  0  0  0
  -34.4845   56.5873   57.5474 C   0  0  0  0  0  0  0  0  0  0  0  0
  -33.1907   57.0201   58.2368 C   0  0  0  0  0  0  0  0  0  0  0  0
  -32.4718   55.8374   58.8843 C   0  0  0  0  0  0  0  0  0  0  0  0
  -32.0197   56.1563   60.3116 C   0  0  0  0  0  0  0  0  0  0  0  0
  -33.0404   56.9852   61.0870 C   0  0  0  0  0  0  0  0  0  0  0  0
  7  8  2  0  0  0
  7  6  1  0  0  0
  7  9  1  0  0  0
  6  5  1  0  0  0
  9 10  1  0  0  0
  5  4  1  0  0  0
  4  3  1  0  0  0
  3  2  1  0  0  0
  2  1  1  0  0  0
  1 11  1  0  0  0
 11 12  1  0  0  0
 12 13  2  0  0  0
 13 14  1  0  0  0
 14 15  1  0  0  0
 15 16  1  0  0  0
 16 17  1  0  0  0
 17 18  1  0  0  0
 18 19  1  0  0  0
M  END
> <minimizedAffinity>
-6.26830

> <CNNscore>
0.5651572347

> <CNNaffinity>
5.3495240211

> <CNN_VS>
3.0233221054

> <CNNaffinity_variance>
0.0573607683

$$$$
/media/chris/experiments/cd1a-new-docking/inputs/ligands/4x6d_2_ligand.pdb


 19 18  0  0  0  0  0  0  0  0999 V2000
  -48.0461   59.4323   64.6544 C   0  0  0  0  0  0  0  0  0  0  0  0
  -48.7427   58.5111   63.6625 C   0  0  0  0  0  0  0  0  0  0  0  0
  -50.1265   59.0079   63.2800 C   0  0  0  0  0  0  0  0  0  0  0  0
  -50.2422   59.1259   61.7691 C   0  0  0  0  0  0  0  0  0  0  0  0
  -49.5688   57.9262   61.1276 C   0  0  0  0  0  0  0  0  0  0  0  0
  -49.0943   58.2341   59.7163 C   0  0  0  0  0  0  0  0  0  0  0  0
  -47.9192   57.3480   59.3852 C   0  0  0  0  0  0  0  0  0  0  0  0
  -46.7776   57.8376   59.2813 O   0  0  0  0  0  0  0  0  0  0  0  0
  -48.0647   56.1202   59.2058 O   0  0  0  0  0  0  0  0  0  0  0  0
  -48.9150   55.7335   59.2795 H   0  0  0  0  0  0  0  0  0  0  0  0
  -46.8469   58.6750   65.2060 C   0  0  0  0  0  0  0  0  0  0  0  0
  -45.9566   59.5667   66.0378 C   0  0  0  0  0  0  0  0  0  0  0  0
  -44.5089   59.3079   66.0877 C   0  0  0  0  0  0  0  0  0  0  0  0
  -43.9735   58.0323   65.4873 C   0  0  0  0  0  0  0  0  0  0  0  0
  -42.4753   57.9041   65.7396 C   0  0  0  0  0  0  0  0  0  0  0  0
  -41.9741   59.0872   66.5676 C   0  0  0  0  0  0  0  0  0  0  0  0
  -40.7535   59.7480   65.9287 C   0  0  0  0  0  0  0  0  0  0  0  0
  -41.0256   61.2068   65.5528 C   0  0  0  0  0  0  0  0  0  0  0  0
  -41.9402   61.3470   64.3388 C   0  0  0  0  0  0  0  0  0  0  0  0
  7  8  2  0  0  0
  7  6  1  0  0  0
  7  9  1  0  0  0
  6  5  1  0  0  0
  9 10  1  0  0  0
  5  4  1  0  0  0
  4  3  1  0  0  0
  3  2  1  0  0  0
  2  1  1  0  0  0
  1 11  1  0  0  0
 11 12  1  0  0  0
 12 13  2  0  0  0
 13 14  1  0  0  0
 14 15  1  0  0  0
 15 16  1  0  0  0
 16 17  1  0  0  0
 17 18  1  0  0  0
 18 19  1  0  0  0
M  END
> <minimizedAffinity>
-6.34551

> <CNNscore>
0.5445879102

> <CNNaffinity>
5.9919672012

> <CNN_VS>
3.2631528378

> <CNNaffinity_variance>
0.6891714334

$$$$
