/media/chris/experiments/cd1a-new-docking/inputs/ligands/4x6d_2_ligand.pdb


 19 18  0  0  0  0  0  0  0  0999 V2000
  -46.7408   57.3927   66.0941 C   0  0  0  0  0  0  0  0  0  0  0  0
  -45.2394   57.6104   65.9663 C   0  0  0  0  0  0  0  0  0  0  0  0
  -44.8669   58.3702   64.7045 C   0  0  0  0  0  0  0  0  0  0  0  0
  -43.9626   59.5430   65.0463 C   0  0  0  0  0  0  0  0  0  0  0  0
  -43.1028   59.1710   66.2408 C   0  0  0  0  0  0  0  0  0  0  0  0
  -42.5351   60.4008   66.9314 C   0  0  0  0  0  0  0  0  0  0  0  0
  -41.2875   60.8426   66.2077 C   0  0  0  0  0  0  0  0  0  0  0  0
  -41.2294   61.9797   65.7005 O   0  0  0  0  0  0  0  0  0  0  0  0
  -40.2999   60.0852   66.0988 O   0  0  0  0  0  0  0  0  0  0  0  0
  -40.3244   59.2267   66.4733 H   0  0  0  0  0  0  0  0  0  0  0  0
  -47.3991   58.0957   64.9159 C   0  0  0  0  0  0  0  0  0  0  0  0
  -48.7884   58.5783   65.2578 C   0  0  0  0  0  0  0  0  0  0  0  0
  -49.8370   58.5693   64.2255 C   0  0  0  0  0  0  0  0  0  0  0  0
  -49.4516   58.2875   62.7950 C   0  0  0  0  0  0  0  0  0  0  0  0
  -50.5457   58.7514   61.8397 C   0  0  0  0  0  0  0  0  0  0  0  0
  -51.0148   57.5882   60.9661 C   0  0  0  0  0  0  0  0  0  0  0  0
  -49.8454   56.9033   60.2603 C   0  0  0  0  0  0  0  0  0  0  0  0
  -49.3841   57.6872   59.0290 C   0  0  0  0  0  0  0  0  0  0  0  0
  -47.9004   58.0432   59.0726 C   0  0  0  0  0  0  0  0  0  0  0  0
  7  8  2  0  0  0
  7  6  1  0  0  0
  7  9  1  0  0  0
  6  5  1  0  0  0
  9 10  1  0  0  0
  5  4  1  0  0  0
  4  3  1  0  0  0
  3  2  1  0  0  0
  2  1  1  0  0  0
  1 11  1  0  0  0
 11 12  1  0  0  0
 12 13  2  0  0  0
 13 14  1  0  0  0
 14 15  1  0  0  0
 15 16  1  0  0  0
 16 17  1  0  0  0
 17 18  1  0  0  0
 18 19  1  0  0  0
M  END
> <minimizedAffinity>
-6.71223

> <CNNscore>
0.8440073729

> <CNNaffinity>
6.4703893661

> <CNN_VS>
5.4610562325

> <CNNaffinity_variance>
0.5090595484

$$$$
/media/chris/experiments/cd1a-new-docking/inputs/ligands/4x6d_2_ligand.pdb


 19 18  0  0  0  0  0  0  0  0999 V2000
  -44.7124   57.8248   64.6333 C   0  0  0  0  0  0  0  0  0  0  0  0
  -43.8689   57.9091   65.8979 C   0  0  0  0  0  0  0  0  0  0  0  0
  -42.4122   57.5562   65.6503 C   0  0  0  0  0  0  0  0  0  0  0  0
  -41.5787   58.8218   65.5328 C   0  0  0  0  0  0  0  0  0  0  0  0
  -41.6573   59.5873   66.8414 C   0  0  0  0  0  0  0  0  0  0  0  0
  -42.1502   61.0104   66.6331 C   0  0  0  0  0  0  0  0  0  0  0  0
  -41.2569   61.7017   65.6333 C   0  0  0  0  0  0  0  0  0  0  0  0
  -41.6786   61.9518   64.4873 O   0  0  0  0  0  0  0  0  0  0  0  0
  -40.0880   62.0298   65.9280 O   0  0  0  0  0  0  0  0  0  0  0  0
  -39.7529   61.8503   66.7843 H   0  0  0  0  0  0  0  0  0  0  0  0
  -45.9632   58.6585   64.8705 C   0  0  0  0  0  0  0  0  0  0  0  0
  -47.0021   57.8967   65.6579 C   0  0  0  0  0  0  0  0  0  0  0  0
  -48.3720   57.7794   65.1335 C   0  0  0  0  0  0  0  0  0  0  0  0
  -48.7683   58.6035   63.9342 C   0  0  0  0  0  0  0  0  0  0  0  0
  -50.0921   59.3176   64.1834 C   0  0  0  0  0  0  0  0  0  0  0  0
  -50.8822   59.4392   62.8806 C   0  0  0  0  0  0  0  0  0  0  0  0
  -50.0490   59.0152   61.6720 C   0  0  0  0  0  0  0  0  0  0  0  0
  -50.7492   57.9313   60.8484 C   0  0  0  0  0  0  0  0  0  0  0  0
  -50.3396   57.9447   59.3780 C   0  0  0  0  0  0  0  0  0  0  0  0
  7  8  2  0  0  0
  7  6  1  0  0  0
  7  9  1  0  0  0
  6  5  1  0  0  0
  9 10  1  0  0  0
  5  4  1  0  0  0
  4  3  1  0  0  0
  3  2  1  0  0  0
  2  1  1  0  0  0
  1 11  1  0  0  0
 11 12  1  0  0  0
 12 13  2  0  0  0
 13 14  1  0  0  0
 14 15  1  0  0  0
 15 16  1  0  0  0
 16 17  1  0  0  0
 17 18  1  0  0  0
 18 19  1  0  0  0
M  END
> <minimizedAffinity>
-6.87567

> <CNNscore>
0.8275642395

> <CNNaffinity>
6.2470550537

> <CNN_VS>
5.1698393822

> <CNNaffinity_variance>
0.1621777862

$$$$
/media/chris/experiments/cd1a-new-docking/inputs/ligands/4x6d_2_ligand.pdb


 19 18  0  0  0  0  0  0  0  0999 V2000
  -45.8200   57.6119   66.1712 C   0  0  0  0  0  0  0  0  0  0  0  0
  -44.8156   57.6287   65.0272 C   0  0  0  0  0  0  0  0  0  0  0  0
  -43.3771   57.6180   65.5157 C   0  0  0  0  0  0  0  0  0  0  0  0
  -42.6685   58.8926   65.0875 C   0  0  0  0  0  0  0  0  0  0  0  0
  -41.8304   59.4037   66.2455 C   0  0  0  0  0  0  0  0  0  0  0  0
  -40.4399   59.8208   65.7938 C   0  0  0  0  0  0  0  0  0  0  0  0
  -40.3375   61.3253   65.8340 C   0  0  0  0  0  0  0  0  0  0  0  0
  -41.3472   62.0135   66.0803 O   0  0  0  0  0  0  0  0  0  0  0  0
  -39.2525   61.9062   65.6191 O   0  0  0  0  0  0  0  0  0  0  0  0
  -38.4825   61.4062   65.4323 H   0  0  0  0  0  0  0  0  0  0  0  0
  -46.0441   59.0563   66.5944 C   0  0  0  0  0  0  0  0  0  0  0  0
  -46.2863   59.9561   65.4063 C   0  0  0  0  0  0  0  0  0  0  0  0
  -47.5190   60.7567   65.3384 C   0  0  0  0  0  0  0  0  0  0  0  0
  -48.6137   60.4992   66.3433 C   0  0  0  0  0  0  0  0  0  0  0  0
  -49.7761   59.7543   65.6964 C   0  0  0  0  0  0  0  0  0  0  0  0
  -50.5738   60.6967   64.7953 C   0  0  0  0  0  0  0  0  0  0  0  0
  -50.9939   60.0145   63.4942 C   0  0  0  0  0  0  0  0  0  0  0  0
  -50.0491   58.8699   63.1193 C   0  0  0  0  0  0  0  0  0  0  0  0
  -50.0831   58.5347   61.6305 C   0  0  0  0  0  0  0  0  0  0  0  0
  7  8  2  0  0  0
  7  6  1  0  0  0
  7  9  1  0  0  0
  6  5  1  0  0  0
  9 10  1  0  0  0
  5  4  1  0  0  0
  4  3  1  0  0  0
  3  2  1  0  0  0
  2  1  1  0  0  0
  1 11  1  0  0  0
 11 12  1  0  0  0
 12 13  2  0  0  0
 13 14  1  0  0  0
 14 15  1  0  0  0
 15 16  1  0  0  0
 16 17  1  0  0  0
 17 18  1  0  0  0
 18 19  1  0  0  0
M  END
> <minimizedAffinity>
-6.64241

> <CNNscore>
0.7519430518

> <CNNaffinity>
6.1550784111

> <CNN_VS>
4.6282682419

> <CNNaffinity_variance>
0.2657654285

$$$$
/media/chris/experiments/cd1a-new-docking/inputs/ligands/4x6d_2_ligand.pdb


 19 18  0  0  0  0  0  0  0  0999 V2000
  -48.1292   58.5881   65.0111 C   0  0  0  0  0  0  0  0  0  0  0  0
  -48.3069   59.8588   65.8307 C   0  0  0  0  0  0  0  0  0  0  0  0
  -46.9821   60.5122   66.1857 C   0  0  0  0  0  0  0  0  0  0  0  0
  -46.0583   59.5007   66.8440 C   0  0  0  0  0  0  0  0  0  0  0  0
  -44.6339   59.7655   66.3907 C   0  0  0  0  0  0  0  0  0  0  0  0
  -44.3599   59.1720   65.0180 C   0  0  0  0  0  0  0  0  0  0  0  0
  -43.6399   57.8567   65.1827 C   0  0  0  0  0  0  0  0  0  0  0  0
  -44.1909   56.7951   64.8319 O   0  0  0  0  0  0  0  0  0  0  0  0
  -42.4919   57.8041   65.6727 O   0  0  0  0  0  0  0  0  0  0  0  0
  -42.0612   58.5913   65.9423 H   0  0  0  0  0  0  0  0  0  0  0  0
  -49.4631   58.2958   64.3395 C   0  0  0  0  0  0  0  0  0  0  0  0
  -49.9578   59.4774   63.5403 C   0  0  0  0  0  0  0  0  0  0  0  0
  -50.6521   59.2531   62.2625 C   0  0  0  0  0  0  0  0  0  0  0  0
  -50.6622   57.8662   61.6702 C   0  0  0  0  0  0  0  0  0  0  0  0
  -50.7200   57.9297   60.1479 C   0  0  0  0  0  0  0  0  0  0  0  0
  -49.5017   57.2334   59.5417 C   0  0  0  0  0  0  0  0  0  0  0  0
  -48.3711   58.2201   59.2541 C   0  0  0  0  0  0  0  0  0  0  0  0
  -47.1208   57.5156   58.7216 C   0  0  0  0  0  0  0  0  0  0  0  0
  -47.3905   56.0796   58.2796 C   0  0  0  0  0  0  0  0  0  0  0  0
  7  8  2  0  0  0
  7  6  1  0  0  0
  7  9  1  0  0  0
  6  5  1  0  0  0
  9 10  1  0  0  0
  5  4  1  0  0  0
  4  3  1  0  0  0
  3  2  1  0  0  0
  2  1  1  0  0  0
  1 11  1  0  0  0
 11 12  1  0  0  0
 12 13  2  0  0  0
 13 14  1  0  0  0
 14 15  1  0  0  0
 15 16  1  0  0  0
 16 17  1  0  0  0
 17 18  1  0  0  0
 18 19  1  0  0  0
M  END
> <minimizedAffinity>
-6.76459

> <CNNscore>
0.7189621329

> <CNNaffinity>
6.2453360558

> <CNN_VS>
4.4901599884

> <CNNaffinity_variance>
0.2468839586

$$$$
/media/chris/experiments/cd1a-new-docking/inputs/ligands/4x6d_2_ligand.pdb


 19 18  0  0  0  0  0  0  0  0999 V2000
  -44.0455   60.4316   65.3752 C   0  0  0  0  0  0  0  0  0  0  0  0
  -43.0245   59.4532   64.8112 C   0  0  0  0  0  0  0  0  0  0  0  0
  -41.6036   59.9849   64.8905 C   0  0  0  0  0  0  0  0  0  0  0  0
  -41.4930   61.3001   64.1368 C   0  0  0  0  0  0  0  0  0  0  0  0
  -41.1447   61.0104   62.6879 C   0  0  0  0  0  0  0  0  0  0  0  0
  -39.7268   60.4809   62.5442 C   0  0  0  0  0  0  0  0  0  0  0  0
  -39.1441   60.9749   61.2434 C   0  0  0  0  0  0  0  0  0  0  0  0
  -39.8597   61.0448   60.2252 O   0  0  0  0  0  0  0  0  0  0  0  0
  -37.9451   61.3157   61.1593 O   0  0  0  0  0  0  0  0  0  0  0  0
  -37.3912   61.2703   61.9136 H   0  0  0  0  0  0  0  0  0  0  0  0
  -45.4025   59.7448   65.3246 C   0  0  0  0  0  0  0  0  0  0  0  0
  -46.5349   60.7435   65.3189 C   0  0  0  0  0  0  0  0  0  0  0  0
  -47.9249   60.2689   65.4088 C   0  0  0  0  0  0  0  0  0  0  0  0
  -48.2021   58.7918   65.2836 C   0  0  0  0  0  0  0  0  0  0  0  0
  -49.4988   58.5487   64.5192 C   0  0  0  0  0  0  0  0  0  0  0  0
  -49.8103   59.7389   63.6121 C   0  0  0  0  0  0  0  0  0  0  0  0
  -50.8223   59.3737   62.5272 C   0  0  0  0  0  0  0  0  0  0  0  0
  -50.4185   58.1031   61.7748 C   0  0  0  0  0  0  0  0  0  0  0  0
  -50.0062   58.3735   60.3302 C   0  0  0  0  0  0  0  0  0  0  0  0
  7  8  2  0  0  0
  7  6  1  0  0  0
  7  9  1  0  0  0
  6  5  1  0  0  0
  9 10  1  0  0  0
  5  4  1  0  0  0
  4  3  1  0  0  0
  3  2  1  0  0  0
  2  1  1  0  0  0
  1 11  1  0  0  0
 11 12  1  0  0  0
 12 13  2  0  0  0
 13 14  1  0  0  0
 14 15  1  0  0  0
 15 16  1  0  0  0
 16 17  1  0  0  0
 17 18  1  0  0  0
 18 19  1  0  0  0
M  END
> <minimizedAffinity>
-6.66909

> <CNNscore>
0.7028946280

> <CNNaffinity>
6.1363744736

> <CNN_VS>
4.3132247925

> <CNNaffinity_variance>
0.5426147580

$$$$
/media/chris/experiments/cd1a-new-docking/inputs/ligands/4x6d_2_ligand.pdb


 19 18  0  0  0  0  0  0  0  0999 V2000
  -41.8274   58.4998   65.6607 C   0  0  0  0  0  0  0  0  0  0  0  0
  -41.0772   59.8022   65.4184 C   0  0  0  0  0  0  0  0  0  0  0  0
  -39.6059   59.5780   65.1133 C   0  0  0  0  0  0  0  0  0  0  0  0
  -39.4149   58.2498   64.3995 C   0  0  0  0  0  0  0  0  0  0  0  0
  -38.6761   58.4923   63.0957 C   0  0  0  0  0  0  0  0  0  0  0  0
  -39.0912   59.8039   62.4483 C   0  0  0  0  0  0  0  0  0  0  0  0
  -37.8796   60.4546   61.8286 C   0  0  0  0  0  0  0  0  0  0  0  0
  -36.7469   60.2478   62.3060 O   0  0  0  0  0  0  0  0  0  0  0  0
  -37.9854   61.2092   60.8385 O   0  0  0  0  0  0  0  0  0  0  0  0
  -38.8283   61.3769   60.4653 H   0  0  0  0  0  0  0  0  0  0  0  0
  -43.2058   58.6514   65.0340 C   0  0  0  0  0  0  0  0  0  0  0  0
  -44.0857   57.4589   65.3228 C   0  0  0  0  0  0  0  0  0  0  0  0
  -45.3631   57.6500   66.0279 C   0  0  0  0  0  0  0  0  0  0  0  0
  -45.6653   58.9945   66.6407 C   0  0  0  0  0  0  0  0  0  0  0  0
  -47.1438   59.3358   66.4914 C   0  0  0  0  0  0  0  0  0  0  0  0
  -47.5621   59.2494   65.0238 C   0  0  0  0  0  0  0  0  0  0  0  0
  -48.7808   58.3473   64.8350 C   0  0  0  0  0  0  0  0  0  0  0  0
  -49.9928   58.8539   65.6211 C   0  0  0  0  0  0  0  0  0  0  0  0
  -50.5623   60.1550   65.0619 C   0  0  0  0  0  0  0  0  0  0  0  0
  7  8  2  0  0  0
  7  6  1  0  0  0
  7  9  1  0  0  0
  6  5  1  0  0  0
  9 10  1  0  0  0
  5  4  1  0  0  0
  4  3  1  0  0  0
  3  2  1  0  0  0
  2  1  1  0  0  0
  1 11  1  0  0  0
 11 12  1  0  0  0
 12 13  2  0  0  0
 13 14  1  0  0  0
 14 15  1  0  0  0
 15 16  1  0  0  0
 16 17  1  0  0  0
 17 18  1  0  0  0
 18 19  1  0  0  0
M  END
> <minimizedAffinity>
-6.25511

> <CNNscore>
0.6606124043

> <CNNaffinity>
6.0956430435

> <CNN_VS>
4.0268573761

> <CNNaffinity_variance>
0.3500140607

$$$$
/media/chris/experiments/cd1a-new-docking/inputs/ligands/4x6d_2_ligand.pdb


 19 18  0  0  0  0  0  0  0  0999 V2000
  -44.5794   59.6201   66.0111 C   0  0  0  0  0  0  0  0  0  0  0  0
  -44.1640   60.5286   64.8622 C   0  0  0  0  0  0  0  0  0  0  0  0
  -42.6873   60.4049   64.5274 C   0  0  0  0  0  0  0  0  0  0  0  0
  -42.0769   59.2302   65.2742 C   0  0  0  0  0  0  0  0  0  0  0  0
  -40.5767   59.4374   65.3777 C   0  0  0  0  0  0  0  0  0  0  0  0
  -40.2279   60.8834   65.6922 C   0  0  0  0  0  0  0  0  0  0  0  0
  -38.7285   61.0470   65.6676 C   0  0  0  0  0  0  0  0  0  0  0  0
  -37.9900   60.0445   65.7251 O   0  0  0  0  0  0  0  0  0  0  0  0
  -38.2018   62.1775   65.5946 O   0  0  0  0  0  0  0  0  0  0  0  0
  -38.7401   62.9431   65.5505 H   0  0  0  0  0  0  0  0  0  0  0  0
  -46.0689   59.8341   66.2378 C   0  0  0  0  0  0  0  0  0  0  0  0
  -46.6492   60.8181   65.2506 C   0  0  0  0  0  0  0  0  0  0  0  0
  -48.0866   61.1301   65.2927 C   0  0  0  0  0  0  0  0  0  0  0  0
  -48.9887   60.3012   66.1722 C   0  0  0  0  0  0  0  0  0  0  0  0
  -49.9080   59.4246   65.3289 C   0  0  0  0  0  0  0  0  0  0  0  0
  -50.8806   60.2916   64.5297 C   0  0  0  0  0  0  0  0  0  0  0  0
  -50.9096   59.8961   63.0541 C   0  0  0  0  0  0  0  0  0  0  0  0
  -50.0392   58.6681   62.7754 C   0  0  0  0  0  0  0  0  0  0  0  0
  -50.5198   57.8594   61.5732 C   0  0  0  0  0  0  0  0  0  0  0  0
  7  8  2  0  0  0
  7  6  1  0  0  0
  7  9  1  0  0  0
  6  5  1  0  0  0
  9 10  1  0  0  0
  5  4  1  0  0  0
  4  3  1  0  0  0
  3  2  1  0  0  0
  2  1  1  0  0  0
  1 11  1  0  0  0
 11 12  1  0  0  0
 12 13  2  0  0  0
 13 14  1  0  0  0
 14 15  1  0  0  0
 15 16  1  0  0  0
 16 17  1  0  0  0
 17 18  1  0  0  0
 18 19  1  0  0  0
M  END
> <minimizedAffinity>
-6.64613

> <CNNscore>
0.6202271581

> <CNNaffinity>
5.9258294106

> <CNN_VS>
3.6753604412

> <CNNaffinity_variance>
0.3765761852

$$$$
/media/chris/experiments/cd1a-new-docking/inputs/ligands/4x6d_2_ligand.pdb


 19 18  0  0  0  0  0  0  0  0999 V2000
  -44.7924   60.5524   65.2069 C   0  0  0  0  0  0  0  0  0  0  0  0
  -44.1265   59.6645   66.2490 C   0  0  0  0  0  0  0  0  0  0  0  0
  -42.8493   60.2737   66.8020 C   0  0  0  0  0  0  0  0  0  0  0  0
  -41.7677   59.2118   66.9139 C   0  0  0  0  0  0  0  0  0  0  0  0
  -41.4746   58.6586   65.5309 C   0  0  0  0  0  0  0  0  0  0  0  0
  -40.7443   59.6704   64.6623 C   0  0  0  0  0  0  0  0  0  0  0  0
  -39.5161   59.0217   64.0740 C   0  0  0  0  0  0  0  0  0  0  0  0
  -38.8168   58.2611   64.7713 O   0  0  0  0  0  0  0  0  0  0  0  0
  -39.1755   59.2344   62.8909 O   0  0  0  0  0  0  0  0  0  0  0  0
  -39.6882   59.8030   62.3509 H   0  0  0  0  0  0  0  0  0  0  0  0
  -46.2670   60.1782   65.1730 C   0  0  0  0  0  0  0  0  0  0  0  0
  -46.4678   58.6856   65.2814 C   0  0  0  0  0  0  0  0  0  0  0  0
  -47.8161   58.1479   65.5230 C   0  0  0  0  0  0  0  0  0  0  0  0
  -48.9304   59.1009   65.8755 C   0  0  0  0  0  0  0  0  0  0  0  0
  -50.0578   59.0155   64.8525 C   0  0  0  0  0  0  0  0  0  0  0  0
  -49.7824   59.9574   63.6805 C   0  0  0  0  0  0  0  0  0  0  0  0
  -50.7557   59.7236   62.5261 C   0  0  0  0  0  0  0  0  0  0  0  0
  -50.6005   58.3249   61.9234 C   0  0  0  0  0  0  0  0  0  0  0  0
  -49.2796   58.1410   61.1808 C   0  0  0  0  0  0  0  0  0  0  0  0
  7  8  2  0  0  0
  7  6  1  0  0  0
  7  9  1  0  0  0
  6  5  1  0  0  0
  9 10  1  0  0  0
  5  4  1  0  0  0
  4  3  1  0  0  0
  3  2  1  0  0  0
  2  1  1  0  0  0
  1 11  1  0  0  0
 11 12  1  0  0  0
 12 13  2  0  0  0
 13 14  1  0  0  0
 14 15  1  0  0  0
 15 16  1  0  0  0
 16 17  1  0  0  0
 17 18  1  0  0  0
 18 19  1  0  0  0
M  END
> <minimizedAffinity>
-6.26058

> <CNNscore>
0.5470720530

> <CNNaffinity>
6.0947771072

> <CNN_VS>
3.3342821598

> <CNNaffinity_variance>
0.3031528890

$$$$
/media/chris/experiments/cd1a-new-docking/inputs/ligands/4x6d_2_ligand.pdb


 19 18  0  0  0  0  0  0  0  0999 V2000
  -48.8833   60.4431   65.7110 C   0  0  0  0  0  0  0  0  0  0  0  0
  -50.0553   59.5586   65.3088 C   0  0  0  0  0  0  0  0  0  0  0  0
  -50.9265   60.1974   64.2405 C   0  0  0  0  0  0  0  0  0  0  0  0
  -50.2342   60.1287   62.8892 C   0  0  0  0  0  0  0  0  0  0  0  0
  -50.6785   58.8674   62.1709 C   0  0  0  0  0  0  0  0  0  0  0  0
  -49.4973   58.0953   61.6050 C   0  0  0  0  0  0  0  0  0  0  0  0
  -49.5489   58.1470   60.0983 C   0  0  0  0  0  0  0  0  0  0  0  0
  -50.6294   57.9656   59.5039 O   0  0  0  0  0  0  0  0  0  0  0  0
  -48.5211   58.3655   59.4226 O   0  0  0  0  0  0  0  0  0  0  0  0
  -47.6995   58.5044   59.8511 H   0  0  0  0  0  0  0  0  0  0  0  0
  -47.6095   59.6684   65.4057 C   0  0  0  0  0  0  0  0  0  0  0  0
  -46.6830   59.6238   66.5970 C   0  0  0  0  0  0  0  0  0  0  0  0
  -45.5641   58.6682   66.6139 C   0  0  0  0  0  0  0  0  0  0  0  0
  -45.4942   57.6060   65.5457 C   0  0  0  0  0  0  0  0  0  0  0  0
  -44.1392   57.6311   64.8471 C   0  0  0  0  0  0  0  0  0  0  0  0
  -43.0184   57.8108   65.8708 C   0  0  0  0  0  0  0  0  0  0  0  0
  -41.8765   58.6610   65.3161 C   0  0  0  0  0  0  0  0  0  0  0  0
  -42.0734   60.1485   65.6192 C   0  0  0  0  0  0  0  0  0  0  0  0
  -42.4461   60.4140   67.0754 C   0  0  0  0  0  0  0  0  0  0  0  0
  7  8  2  0  0  0
  7  6  1  0  0  0
  7  9  1  0  0  0
  6  5  1  0  0  0
  9 10  1  0  0  0
  5  4  1  0  0  0
  4  3  1  0  0  0
  3  2  1  0  0  0
  2  1  1  0  0  0
  1 11  1  0  0  0
 11 12  1  0  0  0
 12 13  2  0  0  0
 13 14  1  0  0  0
 14 15  1  0  0  0
 15 16  1  0  0  0
 16 17  1  0  0  0
 17 18  1  0  0  0
 18 19  1  0  0  0
M  END
> <minimizedAffinity>
-6.43034

> <CNNscore>
0.5405540466

> <CNNaffinity>
6.0495734215

> <CNN_VS>
3.2701213360

> <CNNaffinity_variance>
0.5004102588

$$$$
