/media/chris/experiments/cd1a-new-docking/inputs/ligands/4x6d_2_ligand.pdb


 19 18  0  0  0  0  0  0  0  0999 V2000
  -44.8955   57.7185   64.9271 C   0  0  0  0  0  0  0  0  0  0  0  0
  -43.8039   58.1559   65.8939 C   0  0  0  0  0  0  0  0  0  0  0  0
  -43.9582   59.6031   66.3297 C   0  0  0  0  0  0  0  0  0  0  0  0
  -42.6474   60.1224   66.8974 C   0  0  0  0  0  0  0  0  0  0  0  0
  -41.5125   59.2457   66.3995 C   0  0  0  0  0  0  0  0  0  0  0  0
  -40.3063   60.0704   65.9791 C   0  0  0  0  0  0  0  0  0  0  0  0
  -40.7807   61.3766   65.3922 C   0  0  0  0  0  0  0  0  0  0  0  0
  -41.3265   61.3961   64.2717 O   0  0  0  0  0  0  0  0  0  0  0  0
  -40.6339   62.4539   66.0076 O   0  0  0  0  0  0  0  0  0  0  0  0
  -40.2260   62.4597   66.8512 H   0  0  0  0  0  0  0  0  0  0  0  0
  -46.0729   58.6629   65.1209 C   0  0  0  0  0  0  0  0  0  0  0  0
  -47.2646   57.9555   65.7203 C   0  0  0  0  0  0  0  0  0  0  0  0
  -48.5351   57.9135   64.9792 C   0  0  0  0  0  0  0  0  0  0  0  0
  -48.6873   58.7611   63.7412 C   0  0  0  0  0  0  0  0  0  0  0  0
  -50.1604   58.9947   63.4246 C   0  0  0  0  0  0  0  0  0  0  0  0
  -50.3716   59.0731   61.9128 C   0  0  0  0  0  0  0  0  0  0  0  0
  -50.9643   57.7792   61.3567 C   0  0  0  0  0  0  0  0  0  0  0  0
  -50.0365   57.1208   60.3324 C   0  0  0  0  0  0  0  0  0  0  0  0
  -50.0018   57.8626   58.9987 C   0  0  0  0  0  0  0  0  0  0  0  0
  7  8  2  0  0  0
  7  6  1  0  0  0
  7  9  1  0  0  0
  6  5  1  0  0  0
  9 10  1  0  0  0
  5  4  1  0  0  0
  4  3  1  0  0  0
  3  2  1  0  0  0
  2  1  1  0  0  0
  1 11  1  0  0  0
 11 12  1  0  0  0
 12 13  2  0  0  0
 13 14  1  0  0  0
 14 15  1  0  0  0
 15 16  1  0  0  0
 16 17  1  0  0  0
 17 18  1  0  0  0
 18 19  1  0  0  0
M  END
> <minimizedAffinity>
-6.69917

> <CNNscore>
0.8203567863

> <CNNaffinity>
6.2622938156

> <CNN_VS>
5.1373152733

> <CNNaffinity_variance>
0.3250931203

$$$$
/media/chris/experiments/cd1a-new-docking/inputs/ligands/4x6d_2_ligand.pdb


 19 18  0  0  0  0  0  0  0  0999 V2000
  -46.3303   58.6325   64.9756 C   0  0  0  0  0  0  0  0  0  0  0  0
  -45.4737   57.6921   65.8121 C   0  0  0  0  0  0  0  0  0  0  0  0
  -44.0521   57.5790   65.2884 C   0  0  0  0  0  0  0  0  0  0  0  0
  -43.5318   58.9486   64.8841 C   0  0  0  0  0  0  0  0  0  0  0  0
  -42.2449   59.2299   65.6385 C   0  0  0  0  0  0  0  0  0  0  0  0
  -42.1718   60.6737   66.1093 C   0  0  0  0  0  0  0  0  0  0  0  0
  -41.0049   61.3542   65.4378 C   0  0  0  0  0  0  0  0  0  0  0  0
  -40.6114   60.9625   64.3218 O   0  0  0  0  0  0  0  0  0  0  0  0
  -40.4127   62.3104   65.9818 O   0  0  0  0  0  0  0  0  0  0  0  0
  -40.6937   62.6194   66.8205 H   0  0  0  0  0  0  0  0  0  0  0  0
  -46.8411   59.7230   65.9060 C   0  0  0  0  0  0  0  0  0  0  0  0
  -47.2547   60.9594   65.1445 C   0  0  0  0  0  0  0  0  0  0  0  0
  -48.6812   61.3021   65.0317 C   0  0  0  0  0  0  0  0  0  0  0  0
  -49.7117   60.2999   65.4879 C   0  0  0  0  0  0  0  0  0  0  0  0
  -51.0052   60.4571   64.6960 C   0  0  0  0  0  0  0  0  0  0  0  0
  -50.8276   59.9154   63.2778 C   0  0  0  0  0  0  0  0  0  0  0  0
  -50.1283   58.5568   63.2747 C   0  0  0  0  0  0  0  0  0  0  0  0
  -49.6810   58.1486   61.8688 C   0  0  0  0  0  0  0  0  0  0  0  0
  -50.8382   57.6843   60.9883 C   0  0  0  0  0  0  0  0  0  0  0  0
  7  8  2  0  0  0
  7  6  1  0  0  0
  7  9  1  0  0  0
  6  5  1  0  0  0
  9 10  1  0  0  0
  5  4  1  0  0  0
  4  3  1  0  0  0
  3  2  1  0  0  0
  2  1  1  0  0  0
  1 11  1  0  0  0
 11 12  1  0  0  0
 12 13  2  0  0  0
 13 14  1  0  0  0
 14 15  1  0  0  0
 15 16  1  0  0  0
 16 17  1  0  0  0
 17 18  1  0  0  0
 18 19  1  0  0  0
M  END
> <minimizedAffinity>
-6.72406

> <CNNscore>
0.7641081810

> <CNNaffinity>
6.1951017380

> <CNN_VS>
4.7337279320

> <CNNaffinity_variance>
0.3780032992

$$$$
/media/chris/experiments/cd1a-new-docking/inputs/ligands/4x6d_2_ligand.pdb


 19 18  0  0  0  0  0  0  0  0999 V2000
  -46.4189   60.1537   66.2926 C   0  0  0  0  0  0  0  0  0  0  0  0
  -45.6929   60.7905   65.1157 C   0  0  0  0  0  0  0  0  0  0  0  0
  -44.2221   60.4132   65.0661 C   0  0  0  0  0  0  0  0  0  0  0  0
  -43.8830   59.4731   66.2112 C   0  0  0  0  0  0  0  0  0  0  0  0
  -42.6443   59.9880   66.9219 C   0  0  0  0  0  0  0  0  0  0  0  0
  -42.1437   61.2873   66.3115 C   0  0  0  0  0  0  0  0  0  0  0  0
  -40.6914   61.1294   65.9349 C   0  0  0  0  0  0  0  0  0  0  0  0
  -40.2303   59.9984   65.6861 O   0  0  0  0  0  0  0  0  0  0  0  0
  -39.9286   62.1167   65.8698 O   0  0  0  0  0  0  0  0  0  0  0  0
  -40.2566   62.9750   66.0532 H   0  0  0  0  0  0  0  0  0  0  0  0
  -47.9013   60.4523   66.1217 C   0  0  0  0  0  0  0  0  0  0  0  0
  -48.1774   61.1965   64.8372 C   0  0  0  0  0  0  0  0  0  0  0  0
  -49.1809   60.6759   63.8953 C   0  0  0  0  0  0  0  0  0  0  0  0
  -49.7537   59.2998   64.1246 C   0  0  0  0  0  0  0  0  0  0  0  0
  -49.4323   58.3791   62.9524 C   0  0  0  0  0  0  0  0  0  0  0  0
  -50.4774   58.5414   61.8490 C   0  0  0  0  0  0  0  0  0  0  0  0
  -49.8349   58.8989   60.5095 C   0  0  0  0  0  0  0  0  0  0  0  0
  -49.2849   57.6632   59.7927 C   0  0  0  0  0  0  0  0  0  0  0  0
  -47.7749   57.7238   59.5777 C   0  0  0  0  0  0  0  0  0  0  0  0
  7  8  2  0  0  0
  7  6  1  0  0  0
  7  9  1  0  0  0
  6  5  1  0  0  0
  9 10  1  0  0  0
  5  4  1  0  0  0
  4  3  1  0  0  0
  3  2  1  0  0  0
  2  1  1  0  0  0
  1 11  1  0  0  0
 11 12  1  0  0  0
 12 13  2  0  0  0
 13 14  1  0  0  0
 14 15  1  0  0  0
 15 16  1  0  0  0
 16 17  1  0  0  0
 17 18  1  0  0  0
 18 19  1  0  0  0
M  END
> <minimizedAffinity>
-6.69656

> <CNNscore>
0.6934625506

> <CNNaffinity>
6.0638251305

> <CNN_VS>
4.2050356865

> <CNNaffinity_variance>
0.3445800245

$$$$
/media/chris/experiments/cd1a-new-docking/inputs/ligands/4x6d_2_ligand.pdb


 19 18  0  0  0  0  0  0  0  0999 V2000
  -44.0828   59.2991   65.5742 C   0  0  0  0  0  0  0  0  0  0  0  0
  -43.5986   60.5486   64.8515 C   0  0  0  0  0  0  0  0  0  0  0  0
  -42.1052   60.5185   64.5742 C   0  0  0  0  0  0  0  0  0  0  0  0
  -41.8117   61.1322   63.2151 C   0  0  0  0  0  0  0  0  0  0  0  0
  -40.4335   60.6873   62.7601 C   0  0  0  0  0  0  0  0  0  0  0  0
  -40.1301   61.1520   61.3447 C   0  0  0  0  0  0  0  0  0  0  0  0
  -38.7354   60.7164   60.9695 C   0  0  0  0  0  0  0  0  0  0  0  0
  -37.7471   61.2728   61.4866 O   0  0  0  0  0  0  0  0  0  0  0  0
  -38.5440   59.8027   60.1391 O   0  0  0  0  0  0  0  0  0  0  0  0
  -39.2741   59.3723   59.7396 H   0  0  0  0  0  0  0  0  0  0  0  0
  -45.0847   59.7487   66.6277 C   0  0  0  0  0  0  0  0  0  0  0  0
  -46.3006   58.8541   66.6610 C   0  0  0  0  0  0  0  0  0  0  0  0
  -47.6065   59.3842   66.2382 C   0  0  0  0  0  0  0  0  0  0  0  0
  -47.7485   60.8650   65.9902 C   0  0  0  0  0  0  0  0  0  0  0  0
  -48.4284   61.1253   64.6506 C   0  0  0  0  0  0  0  0  0  0  0  0
  -49.9466   61.1596   64.8246 C   0  0  0  0  0  0  0  0  0  0  0  0
  -50.6232   59.9829   64.1229 C   0  0  0  0  0  0  0  0  0  0  0  0
  -50.0831   59.7768   62.7055 C   0  0  0  0  0  0  0  0  0  0  0  0
  -50.4034   58.3946   62.1425 C   0  0  0  0  0  0  0  0  0  0  0  0
  7  8  2  0  0  0
  7  6  1  0  0  0
  7  9  1  0  0  0
  6  5  1  0  0  0
  9 10  1  0  0  0
  5  4  1  0  0  0
  4  3  1  0  0  0
  3  2  1  0  0  0
  2  1  1  0  0  0
  1 11  1  0  0  0
 11 12  1  0  0  0
 12 13  2  0  0  0
 13 14  1  0  0  0
 14 15  1  0  0  0
 15 16  1  0  0  0
 16 17  1  0  0  0
 17 18  1  0  0  0
 18 19  1  0  0  0
M  END
> <minimizedAffinity>
-6.38646

> <CNNscore>
0.6595656872

> <CNNaffinity>
5.9306764603

> <CNN_VS>
3.9116706848

> <CNNaffinity_variance>
0.2976838648

$$$$
/media/chris/experiments/cd1a-new-docking/inputs/ligands/4x6d_2_ligand.pdb


 19 18  0  0  0  0  0  0  0  0999 V2000
  -41.4316   59.7527   66.7027 C   0  0  0  0  0  0  0  0  0  0  0  0
  -41.0979   59.0661   65.3855 C   0  0  0  0  0  0  0  0  0  0  0  0
  -39.6346   59.2161   65.0055 C   0  0  0  0  0  0  0  0  0  0  0  0
  -39.1938   58.0441   64.1441 C   0  0  0  0  0  0  0  0  0  0  0  0
  -38.1165   58.5153   63.1839 C   0  0  0  0  0  0  0  0  0  0  0  0
  -37.7198   57.4239   62.2026 C   0  0  0  0  0  0  0  0  0  0  0  0
  -36.2742   57.6105   61.8135 C   0  0  0  0  0  0  0  0  0  0  0  0
  -35.3949   57.6829   62.6940 O   0  0  0  0  0  0  0  0  0  0  0  0
  -35.9329   57.6998   60.6150 O   0  0  0  0  0  0  0  0  0  0  0  0
  -36.5793   57.6476   59.9387 H   0  0  0  0  0  0  0  0  0  0  0  0
  -42.9427   59.9261   66.7494 C   0  0  0  0  0  0  0  0  0  0  0  0
  -43.6014   59.4352   65.4826 C   0  0  0  0  0  0  0  0  0  0  0  0
  -45.0680   59.3368   65.4153 C   0  0  0  0  0  0  0  0  0  0  0  0
  -45.8712   59.5170   66.6790 C   0  0  0  0  0  0  0  0  0  0  0  0
  -47.2349   60.1249   66.3698 C   0  0  0  0  0  0  0  0  0  0  0  0
  -47.1496   61.0152   65.1303 C   0  0  0  0  0  0  0  0  0  0  0  0
  -48.5352   61.3746   64.5956 C   0  0  0  0  0  0  0  0  0  0  0  0
  -49.6484   60.6748   65.3795 C   0  0  0  0  0  0  0  0  0  0  0  0
  -50.8213   60.2532   64.4983 C   0  0  0  0  0  0  0  0  0  0  0  0
  7  8  2  0  0  0
  7  6  1  0  0  0
  7  9  1  0  0  0
  6  5  1  0  0  0
  9 10  1  0  0  0
  5  4  1  0  0  0
  4  3  1  0  0  0
  3  2  1  0  0  0
  2  1  1  0  0  0
  1 11  1  0  0  0
 11 12  1  0  0  0
 12 13  2  0  0  0
 13 14  1  0  0  0
 14 15  1  0  0  0
 15 16  1  0  0  0
 16 17  1  0  0  0
 17 18  1  0  0  0
 18 19  1  0  0  0
M  END
> <minimizedAffinity>
-6.25543

> <CNNscore>
0.6473751664

> <CNNaffinity>
5.7872228622

> <CNN_VS>
3.7465043068

> <CNNaffinity_variance>
0.1574773043

$$$$
/media/chris/experiments/cd1a-new-docking/inputs/ligands/4x6d_2_ligand.pdb


 19 18  0  0  0  0  0  0  0  0999 V2000
  -48.9943   57.9506   65.0669 C   0  0  0  0  0  0  0  0  0  0  0  0
  -49.7623   58.7615   64.0323 C   0  0  0  0  0  0  0  0  0  0  0  0
  -49.5505   58.2497   62.6176 C   0  0  0  0  0  0  0  0  0  0  0  0
  -50.7390   58.6161   61.7440 C   0  0  0  0  0  0  0  0  0  0  0  0
  -50.7449   57.7205   60.5183 C   0  0  0  0  0  0  0  0  0  0  0  0
  -49.6077   56.7119   60.5518 C   0  0  0  0  0  0  0  0  0  0  0  0
  -48.9771   56.6322   59.1838 C   0  0  0  0  0  0  0  0  0  0  0  0
  -49.2776   57.4667   58.3080 O   0  0  0  0  0  0  0  0  0  0  0  0
  -48.1536   55.7359   58.9019 O   0  0  0  0  0  0  0  0  0  0  0  0
  -47.9149   55.0994   59.5468 H   0  0  0  0  0  0  0  0  0  0  0  0
  -47.5368   58.3805   64.9838 C   0  0  0  0  0  0  0  0  0  0  0  0
  -46.9289   58.5639   66.3536 C   0  0  0  0  0  0  0  0  0  0  0  0
  -45.9649   59.6518   66.5827 C   0  0  0  0  0  0  0  0  0  0  0  0
  -45.4376   60.4224   65.3985 C   0  0  0  0  0  0  0  0  0  0  0  0
  -43.9220   60.2884   65.2986 C   0  0  0  0  0  0  0  0  0  0  0  0
  -43.3240   59.9965   66.6747 C   0  0  0  0  0  0  0  0  0  0  0  0
  -41.8529   59.5947   66.5784 C   0  0  0  0  0  0  0  0  0  0  0  0
  -41.5846   58.6978   65.3672 C   0  0  0  0  0  0  0  0  0  0  0  0
  -40.1202   58.7033   64.9364 C   0  0  0  0  0  0  0  0  0  0  0  0
  7  8  2  0  0  0
  7  6  1  0  0  0
  7  9  1  0  0  0
  6  5  1  0  0  0
  9 10  1  0  0  0
  5  4  1  0  0  0
  4  3  1  0  0  0
  3  2  1  0  0  0
  2  1  1  0  0  0
  1 11  1  0  0  0
 11 12  1  0  0  0
 12 13  2  0  0  0
 13 14  1  0  0  0
 14 15  1  0  0  0
 15 16  1  0  0  0
 16 17  1  0  0  0
 17 18  1  0  0  0
 18 19  1  0  0  0
M  END
> <minimizedAffinity>
-6.77687

> <CNNscore>
0.5947739482

> <CNNaffinity>
6.1093273163

> <CNN_VS>
3.6336686611

> <CNNaffinity_variance>
0.3391967714

$$$$
/media/chris/experiments/cd1a-new-docking/inputs/ligands/4x6d_2_ligand.pdb


 19 18  0  0  0  0  0  0  0  0999 V2000
  -47.5656   60.8553   65.2828 C   0  0  0  0  0  0  0  0  0  0  0  0
  -47.4150   59.3454   65.1591 C   0  0  0  0  0  0  0  0  0  0  0  0
  -46.9167   58.7032   66.4426 C   0  0  0  0  0  0  0  0  0  0  0  0
  -45.5986   59.3307   66.8655 C   0  0  0  0  0  0  0  0  0  0  0  0
  -44.4972   58.8300   65.9486 C   0  0  0  0  0  0  0  0  0  0  0  0
  -43.5589   59.9510   65.5309 C   0  0  0  0  0  0  0  0  0  0  0  0
  -42.5086   60.1398   66.5971 C   0  0  0  0  0  0  0  0  0  0  0  0
  -42.2384   61.2838   67.0119 O   0  0  0  0  0  0  0  0  0  0  0  0
  -41.8917   59.1655   67.0777 O   0  0  0  0  0  0  0  0  0  0  0  0
  -42.0807   58.2977   66.7789 H   0  0  0  0  0  0  0  0  0  0  0  0
  -48.6670   61.2777   64.3214 C   0  0  0  0  0  0  0  0  0  0  0  0
  -50.0291   60.8402   64.8044 C   0  0  0  0  0  0  0  0  0  0  0  0
  -50.8921   60.0394   63.9217 C   0  0  0  0  0  0  0  0  0  0  0  0
  -50.4936   59.8579   62.4786 C   0  0  0  0  0  0  0  0  0  0  0  0
  -49.9891   58.4403   62.2320 C   0  0  0  0  0  0  0  0  0  0  0  0
  -50.8349   57.7559   61.1585 C   0  0  0  0  0  0  0  0  0  0  0  0
  -50.0171   57.4484   59.9049 C   0  0  0  0  0  0  0  0  0  0  0  0
  -48.5422   57.8186   60.0808 C   0  0  0  0  0  0  0  0  0  0  0  0
  -47.8767   58.2452   58.7750 C   0  0  0  0  0  0  0  0  0  0  0  0
  7  8  2  0  0  0
  7  6  1  0  0  0
  7  9  1  0  0  0
  6  5  1  0  0  0
  9 10  1  0  0  0
  5  4  1  0  0  0
  4  3  1  0  0  0
  3  2  1  0  0  0
  2  1  1  0  0  0
  1 11  1  0  0  0
 11 12  1  0  0  0
 12 13  2  0  0  0
 13 14  1  0  0  0
 14 15  1  0  0  0
 15 16  1  0  0  0
 16 17  1  0  0  0
 17 18  1  0  0  0
 18 19  1  0  0  0
M  END
> <minimizedAffinity>
-6.77483

> <CNNscore>
0.5845419168

> <CNNaffinity>
6.1260600090

> <CNN_VS>
3.5809388161

> <CNNaffinity_variance>
0.3595903814

$$$$
/media/chris/experiments/cd1a-new-docking/inputs/ligands/4x6d_2_ligand.pdb


 19 18  0  0  0  0  0  0  0  0999 V2000
  -49.1126   58.2646   65.0672 C   0  0  0  0  0  0  0  0  0  0  0  0
  -48.9902   58.7375   63.6252 C   0  0  0  0  0  0  0  0  0  0  0  0
  -50.3413   58.9074   62.9518 C   0  0  0  0  0  0  0  0  0  0  0  0
  -50.4465   57.9862   61.7475 C   0  0  0  0  0  0  0  0  0  0  0  0
  -49.7389   58.6314   60.5696 C   0  0  0  0  0  0  0  0  0  0  0  0
  -49.6489   57.6880   59.3807 C   0  0  0  0  0  0  0  0  0  0  0  0
  -48.2995   57.0136   59.3857 C   0  0  0  0  0  0  0  0  0  0  0  0
  -48.2185   55.7780   59.2428 O   0  0  0  0  0  0  0  0  0  0  0  0
  -47.2479   57.6711   59.5359 O   0  0  0  0  0  0  0  0  0  0  0  0
  -47.2882   58.6009   59.6447 H   0  0  0  0  0  0  0  0  0  0  0  0
  -48.5284   59.3576   65.9502 C   0  0  0  0  0  0  0  0  0  0  0  0
  -47.4630   60.1487   65.2299 C   0  0  0  0  0  0  0  0  0  0  0  0
  -46.0550   59.7332   65.3295 C   0  0  0  0  0  0  0  0  0  0  0  0
  -45.6777   58.6618   66.3216 C   0  0  0  0  0  0  0  0  0  0  0  0
  -45.3788   57.3474   65.6091 C   0  0  0  0  0  0  0  0  0  0  0  0
  -43.9737   57.3780   65.0081 C   0  0  0  0  0  0  0  0  0  0  0  0
  -42.9126   57.6790   66.0655 C   0  0  0  0  0  0  0  0  0  0  0  0
  -42.0173   58.8518   65.6576 C   0  0  0  0  0  0  0  0  0  0  0  0
  -41.7713   59.8364   66.7977 C   0  0  0  0  0  0  0  0  0  0  0  0
  7  8  2  0  0  0
  7  6  1  0  0  0
  7  9  1  0  0  0
  6  5  1  0  0  0
  9 10  1  0  0  0
  5  4  1  0  0  0
  4  3  1  0  0  0
  3  2  1  0  0  0
  2  1  1  0  0  0
  1 11  1  0  0  0
 11 12  1  0  0  0
 12 13  2  0  0  0
 13 14  1  0  0  0
 14 15  1  0  0  0
 15 16  1  0  0  0
 16 17  1  0  0  0
 17 18  1  0  0  0
 18 19  1  0  0  0
M  END
> <minimizedAffinity>
-6.64173

> <CNNscore>
0.5702173710

> <CNNaffinity>
6.0955553055

> <CNN_VS>
3.4757914543

> <CNNaffinity_variance>
0.3499142826

$$$$
/media/chris/experiments/cd1a-new-docking/inputs/ligands/4x6d_2_ligand.pdb


 19 18  0  0  0  0  0  0  0  0999 V2000
  -42.6888   60.4438   66.4445 C   0  0  0  0  0  0  0  0  0  0  0  0
  -41.6291   59.3655   66.2654 C   0  0  0  0  0  0  0  0  0  0  0  0
  -40.7107   59.6422   65.0873 C   0  0  0  0  0  0  0  0  0  0  0  0
  -41.0498   60.9854   64.4622 C   0  0  0  0  0  0  0  0  0  0  0  0
  -40.9072   60.8779   62.9546 C   0  0  0  0  0  0  0  0  0  0  0  0
  -39.5691   60.2756   62.5568 C   0  0  0  0  0  0  0  0  0  0  0  0
  -39.0859   60.9376   61.2903 C   0  0  0  0  0  0  0  0  0  0  0  0
  -39.8640   61.0876   60.3281 O   0  0  0  0  0  0  0  0  0  0  0  0
  -37.9085   61.3403   61.1791 O   0  0  0  0  0  0  0  0  0  0  0  0
  -37.3087   61.2366   61.8914 H   0  0  0  0  0  0  0  0  0  0  0  0
  -44.0456   59.7665   66.3173 C   0  0  0  0  0  0  0  0  0  0  0  0
  -44.2584   59.1956   64.9359 C   0  0  0  0  0  0  0  0  0  0  0  0
  -45.2393   58.1169   64.7369 C   0  0  0  0  0  0  0  0  0  0  0  0
  -45.8513   57.4537   65.9452 C   0  0  0  0  0  0  0  0  0  0  0  0
  -47.3603   57.3135   65.7777 C   0  0  0  0  0  0  0  0  0  0  0  0
  -47.9594   58.6199   65.2573 C   0  0  0  0  0  0  0  0  0  0  0  0
  -48.9416   58.3753   64.1126 C   0  0  0  0  0  0  0  0  0  0  0  0
  -49.6825   59.6540   63.7135 C   0  0  0  0  0  0  0  0  0  0  0  0
  -50.5980   60.1792   64.8163 C   0  0  0  0  0  0  0  0  0  0  0  0
  7  8  2  0  0  0
  7  6  1  0  0  0
  7  9  1  0  0  0
  6  5  1  0  0  0
  9 10  1  0  0  0
  5  4  1  0  0  0
  4  3  1  0  0  0
  3  2  1  0  0  0
  2  1  1  0  0  0
  1 11  1  0  0  0
 11 12  1  0  0  0
 12 13  2  0  0  0
 13 14  1  0  0  0
 14 15  1  0  0  0
 15 16  1  0  0  0
 16 17  1  0  0  0
 17 18  1  0  0  0
 18 19  1  0  0  0
M  END
> <minimizedAffinity>
-6.44222

> <CNNscore>
0.5473865271

> <CNNaffinity>
6.0044226646

> <CNN_VS>
3.2867400646

> <CNNaffinity_variance>
0.1897204816

$$$$
