/media/chris/experiments/cd1a-new-docking/inputs/ligands/4x6d_2_ligand.pdb


 19 18  0  0  0  0  0  0  0  0999 V2000
  -47.0944   59.3797   65.0618 C   0  0  0  0  0  0  0  0  0  0  0  0
  -46.4342   59.4521   66.4317 C   0  0  0  0  0  0  0  0  0  0  0  0
  -44.9376   59.6984   66.3439 C   0  0  0  0  0  0  0  0  0  0  0  0
  -44.4145   59.2690   64.9831 C   0  0  0  0  0  0  0  0  0  0  0  0
  -42.9277   59.5667   64.9097 C   0  0  0  0  0  0  0  0  0  0  0  0
  -42.6578   60.9549   64.3516 C   0  0  0  0  0  0  0  0  0  0  0  0
  -41.2748   61.3937   64.7645 C   0  0  0  0  0  0  0  0  0  0  0  0
  -40.2716   60.8721   64.2399 O   0  0  0  0  0  0  0  0  0  0  0  0
  -41.1081   62.2753   65.6339 O   0  0  0  0  0  0  0  0  0  0  0  0
  -41.8496   62.6793   66.0398 H   0  0  0  0  0  0  0  0  0  0  0  0
  -48.1279   58.2641   65.1189 C   0  0  0  0  0  0  0  0  0  0  0  0
  -49.5318   58.7930   64.9480 C   0  0  0  0  0  0  0  0  0  0  0  0
  -50.1716   58.7458   63.6237 C   0  0  0  0  0  0  0  0  0  0  0  0
  -49.3385   58.3751   62.4226 C   0  0  0  0  0  0  0  0  0  0  0  0
  -50.2285   58.0365   61.2318 C   0  0  0  0  0  0  0  0  0  0  0  0
  -49.6815   58.6843   59.9600 C   0  0  0  0  0  0  0  0  0  0  0  0
  -49.5252   57.6680   58.8297 C   0  0  0  0  0  0  0  0  0  0  0  0
  -48.1702   57.7974   58.1295 C   0  0  0  0  0  0  0  0  0  0  0  0
  -46.9966   57.8195   59.1053 C   0  0  0  0  0  0  0  0  0  0  0  0
  7  8  2  0  0  0
  7  6  1  0  0  0
  7  9  1  0  0  0
  6  5  1  0  0  0
  9 10  1  0  0  0
  5  4  1  0  0  0
  4  3  1  0  0  0
  3  2  1  0  0  0
  2  1  1  0  0  0
  1 11  1  0  0  0
 11 12  1  0  0  0
 12 13  2  0  0  0
 13 14  1  0  0  0
 14 15  1  0  0  0
 15 16  1  0  0  0
 16 17  1  0  0  0
 17 18  1  0  0  0
 18 19  1  0  0  0
M  END
> <minimizedAffinity>
-6.63267

> <CNNscore>
0.8732666969

> <CNNaffinity>
6.6317038536

> <CNN_VS>
5.7912459373

> <CNNaffinity_variance>
0.5212840438

$$$$
/media/chris/experiments/cd1a-new-docking/inputs/ligands/4x6d_2_ligand.pdb


 19 18  0  0  0  0  0  0  0  0999 V2000
  -45.6490   59.5804   66.7866 C   0  0  0  0  0  0  0  0  0  0  0  0
  -45.1777   60.2850   65.5219 C   0  0  0  0  0  0  0  0  0  0  0  0
  -43.6808   60.1463   65.3022 C   0  0  0  0  0  0  0  0  0  0  0  0
  -42.9324   60.4363   66.5927 C   0  0  0  0  0  0  0  0  0  0  0  0
  -41.6141   59.6836   66.5784 C   0  0  0  0  0  0  0  0  0  0  0  0
  -40.7481   60.0863   65.3954 C   0  0  0  0  0  0  0  0  0  0  0  0
  -39.9272   61.2947   65.7721 C   0  0  0  0  0  0  0  0  0  0  0  0
  -38.6954   61.1882   65.9298 O   0  0  0  0  0  0  0  0  0  0  0  0
  -40.4594   62.4130   65.9363 O   0  0  0  0  0  0  0  0  0  0  0  0
  -41.3839   62.5132   65.8223 H   0  0  0  0  0  0  0  0  0  0  0  0
  -47.1335   59.2930   66.6148 C   0  0  0  0  0  0  0  0  0  0  0  0
  -47.3706   58.0327   65.8178 C   0  0  0  0  0  0  0  0  0  0  0  0
  -48.6530   57.8417   65.1217 C   0  0  0  0  0  0  0  0  0  0  0  0
  -49.7832   58.8018   65.3958 C   0  0  0  0  0  0  0  0  0  0  0  0
  -50.2828   59.4317   64.1004 C   0  0  0  0  0  0  0  0  0  0  0  0
  -49.4330   58.9615   62.9201 C   0  0  0  0  0  0  0  0  0  0  0  0
  -50.2747   58.2382   61.8697 C   0  0  0  0  0  0  0  0  0  0  0  0
  -49.8203   58.5715   60.4464 C   0  0  0  0  0  0  0  0  0  0  0  0
  -48.5691   57.8043   60.0269 C   0  0  0  0  0  0  0  0  0  0  0  0
  7  8  2  0  0  0
  7  6  1  0  0  0
  7  9  1  0  0  0
  6  5  1  0  0  0
  9 10  1  0  0  0
  5  4  1  0  0  0
  4  3  1  0  0  0
  3  2  1  0  0  0
  2  1  1  0  0  0
  1 11  1  0  0  0
 11 12  1  0  0  0
 12 13  2  0  0  0
 13 14  1  0  0  0
 14 15  1  0  0  0
 15 16  1  0  0  0
 16 17  1  0  0  0
 17 18  1  0  0  0
 18 19  1  0  0  0
M  END
> <minimizedAffinity>
-6.72718

> <CNNscore>
0.8415326476

> <CNNaffinity>
6.3742647171

> <CNN_VS>
5.3641519547

> <CNNaffinity_variance>
0.4076968729

$$$$
/media/chris/experiments/cd1a-new-docking/inputs/ligands/4x6d_2_ligand.pdb


 19 18  0  0  0  0  0  0  0  0999 V2000
  -48.0607   58.7306   64.7255 C   0  0  0  0  0  0  0  0  0  0  0  0
  -47.9447   60.2261   64.9865 C   0  0  0  0  0  0  0  0  0  0  0  0
  -46.6383   60.5982   65.6671 C   0  0  0  0  0  0  0  0  0  0  0  0
  -45.5110   59.7165   65.1556 C   0  0  0  0  0  0  0  0  0  0  0  0
  -44.3715   59.7415   66.1583 C   0  0  0  0  0  0  0  0  0  0  0  0
  -43.0655   60.1818   65.5164 C   0  0  0  0  0  0  0  0  0  0  0  0
  -42.2503   60.9475   66.5287 C   0  0  0  0  0  0  0  0  0  0  0  0
  -41.2582   61.6068   66.1617 O   0  0  0  0  0  0  0  0  0  0  0  0
  -42.5462   60.9331   67.7424 O   0  0  0  0  0  0  0  0  0  0  0  0
  -43.2884   60.4434   68.0379 H   0  0  0  0  0  0  0  0  0  0  0  0
  -49.5380   58.4213   64.5308 C   0  0  0  0  0  0  0  0  0  0  0  0
  -50.2410   59.5125   63.7596 C   0  0  0  0  0  0  0  0  0  0  0  0
  -50.7327   59.2419   62.3993 C   0  0  0  0  0  0  0  0  0  0  0  0
  -50.3333   57.9560   61.7203 C   0  0  0  0  0  0  0  0  0  0  0  0
  -49.4980   58.2388   60.4765 C   0  0  0  0  0  0  0  0  0  0  0  0
  -49.5136   57.0299   59.5413 C   0  0  0  0  0  0  0  0  0  0  0  0
  -48.1083   56.6647   59.0654 C   0  0  0  0  0  0  0  0  0  0  0  0
  -47.1431   57.8477   59.1762 C   0  0  0  0  0  0  0  0  0  0  0  0
  -46.9190   58.5587   57.8442 C   0  0  0  0  0  0  0  0  0  0  0  0
  7  8  2  0  0  0
  7  6  1  0  0  0
  7  9  1  0  0  0
  6  5  1  0  0  0
  9 10  1  0  0  0
  5  4  1  0  0  0
  4  3  1  0  0  0
  3  2  1  0  0  0
  2  1  1  0  0  0
  1 11  1  0  0  0
 11 12  1  0  0  0
 12 13  2  0  0  0
 13 14  1  0  0  0
 14 15  1  0  0  0
 15 16  1  0  0  0
 16 17  1  0  0  0
 17 18  1  0  0  0
 18 19  1  0  0  0
M  END
> <minimizedAffinity>
-6.98415

> <CNNscore>
0.7891350985

> <CNNaffinity>
6.5041031837

> <CNN_VS>
5.1326160431

> <CNNaffinity_variance>
0.5035980940

$$$$
/media/chris/experiments/cd1a-new-docking/inputs/ligands/4x6d_2_ligand.pdb


 19 18  0  0  0  0  0  0  0  0999 V2000
  -43.5863   60.2417   65.2213 C   0  0  0  0  0  0  0  0  0  0  0  0
  -42.8156   60.2084   66.5339 C   0  0  0  0  0  0  0  0  0  0  0  0
  -41.8906   59.0075   66.6352 C   0  0  0  0  0  0  0  0  0  0  0  0
  -41.3587   58.6380   65.2602 C   0  0  0  0  0  0  0  0  0  0  0  0
  -39.8872   59.0038   65.1858 C   0  0  0  0  0  0  0  0  0  0  0  0
  -39.6710   60.3265   64.4680 C   0  0  0  0  0  0  0  0  0  0  0  0
  -39.2936   61.3814   65.4782 C   0  0  0  0  0  0  0  0  0  0  0  0
  -38.1234   61.4499   65.9020 O   0  0  0  0  0  0  0  0  0  0  0  0
  -40.1372   62.1958   65.9093 O   0  0  0  0  0  0  0  0  0  0  0  0
  -41.0219   62.1604   65.6028 H   0  0  0  0  0  0  0  0  0  0  0  0
  -45.0647   60.3335   65.5699 C   0  0  0  0  0  0  0  0  0  0  0  0
  -45.3969   59.5410   66.8114 C   0  0  0  0  0  0  0  0  0  0  0  0
  -46.7972   59.1930   67.1002 C   0  0  0  0  0  0  0  0  0  0  0  0
  -47.8913   59.8190   66.2724 C   0  0  0  0  0  0  0  0  0  0  0  0
  -48.7486   58.7460   65.6104 C   0  0  0  0  0  0  0  0  0  0  0  0
  -50.1867   59.2392   65.4524 C   0  0  0  0  0  0  0  0  0  0  0  0
  -50.2882   60.3682   64.4278 C   0  0  0  0  0  0  0  0  0  0  0  0
  -51.1759   59.9837   63.2414 C   0  0  0  0  0  0  0  0  0  0  0  0
  -50.5514   58.9091   62.3554 C   0  0  0  0  0  0  0  0  0  0  0  0
  7  8  2  0  0  0
  7  6  1  0  0  0
  7  9  1  0  0  0
  6  5  1  0  0  0
  9 10  1  0  0  0
  5  4  1  0  0  0
  4  3  1  0  0  0
  3  2  1  0  0  0
  2  1  1  0  0  0
  1 11  1  0  0  0
 11 12  1  0  0  0
 12 13  2  0  0  0
 13 14  1  0  0  0
 14 15  1  0  0  0
 15 16  1  0  0  0
 16 17  1  0  0  0
 17 18  1  0  0  0
 18 19  1  0  0  0
M  END
> <minimizedAffinity>
-6.71981

> <CNNscore>
0.6928092837

> <CNNaffinity>
5.9270834923

> <CNN_VS>
4.1063385010

> <CNNaffinity_variance>
0.1164103001

$$$$
/media/chris/experiments/cd1a-new-docking/inputs/ligands/4x6d_2_ligand.pdb


 19 18  0  0  0  0  0  0  0  0999 V2000
  -47.7182   58.4462   64.7678 C   0  0  0  0  0  0  0  0  0  0  0  0
  -47.4222   58.5254   66.2591 C   0  0  0  0  0  0  0  0  0  0  0  0
  -46.2289   59.4133   66.5690 C   0  0  0  0  0  0  0  0  0  0  0  0
  -45.9580   60.3525   65.4052 C   0  0  0  0  0  0  0  0  0  0  0  0
  -44.4651   60.3811   65.1316 C   0  0  0  0  0  0  0  0  0  0  0  0
  -43.6552   60.1782   66.4022 C   0  0  0  0  0  0  0  0  0  0  0  0
  -42.6207   59.1066   66.1635 C   0  0  0  0  0  0  0  0  0  0  0  0
  -41.6215   59.0271   66.9045 O   0  0  0  0  0  0  0  0  0  0  0  0
  -42.7400   58.2890   65.2264 O   0  0  0  0  0  0  0  0  0  0  0  0
  -43.4840   58.3325   64.6586 H   0  0  0  0  0  0  0  0  0  0  0  0
  -49.2275   58.5484   64.6027 C   0  0  0  0  0  0  0  0  0  0  0  0
  -49.6404   59.8933   64.0544 C   0  0  0  0  0  0  0  0  0  0  0  0
  -50.4125   59.9639   62.8036 C   0  0  0  0  0  0  0  0  0  0  0  0
  -50.5869   58.7120   61.9810 C   0  0  0  0  0  0  0  0  0  0  0  0
  -49.9203   58.8643   60.6182 C   0  0  0  0  0  0  0  0  0  0  0  0
  -48.9718   57.6942   60.3584 C   0  0  0  0  0  0  0  0  0  0  0  0
  -48.4446   57.7011   58.9242 C   0  0  0  0  0  0  0  0  0  0  0  0
  -46.9390   57.9726   58.8712 C   0  0  0  0  0  0  0  0  0  0  0  0
  -46.5103   58.6984   57.5986 C   0  0  0  0  0  0  0  0  0  0  0  0
  7  8  2  0  0  0
  7  6  1  0  0  0
  7  9  1  0  0  0
  6  5  1  0  0  0
  9 10  1  0  0  0
  5  4  1  0  0  0
  4  3  1  0  0  0
  3  2  1  0  0  0
  2  1  1  0  0  0
  1 11  1  0  0  0
 11 12  1  0  0  0
 12 13  2  0  0  0
 13 14  1  0  0  0
 14 15  1  0  0  0
 15 16  1  0  0  0
 16 17  1  0  0  0
 17 18  1  0  0  0
 18 19  1  0  0  0
M  END
> <minimizedAffinity>
-6.87714

> <CNNscore>
0.6821162701

> <CNNaffinity>
6.3013868332

> <CNN_VS>
4.2982783318

> <CNNaffinity_variance>
0.3651679754

$$$$
/media/chris/experiments/cd1a-new-docking/inputs/ligands/4x6d_2_ligand.pdb


 19 18  0  0  0  0  0  0  0  0999 V2000
  -48.6588   58.3458   65.4653 C   0  0  0  0  0  0  0  0  0  0  0  0
  -49.1403   58.4920   64.0283 C   0  0  0  0  0  0  0  0  0  0  0  0
  -50.3152   59.4469   63.9028 C   0  0  0  0  0  0  0  0  0  0  0  0
  -50.9383   59.3328   62.5213 C   0  0  0  0  0  0  0  0  0  0  0  0
  -50.0090   58.5337   61.6255 C   0  0  0  0  0  0  0  0  0  0  0  0
  -50.7805   57.6408   60.6667 C   0  0  0  0  0  0  0  0  0  0  0  0
  -49.8393   57.1227   59.6077 C   0  0  0  0  0  0  0  0  0  0  0  0
  -49.7699   57.6923   58.5012 O   0  0  0  0  0  0  0  0  0  0  0  0
  -49.1218   56.1209   59.8135 O   0  0  0  0  0  0  0  0  0  0  0  0
  -49.1597   55.6791   60.6389 H   0  0  0  0  0  0  0  0  0  0  0  0
  -47.1557   58.5836   65.4625 C   0  0  0  0  0  0  0  0  0  0  0  0
  -46.3944   57.3559   65.9016 C   0  0  0  0  0  0  0  0  0  0  0  0
  -45.0114   57.1533   65.4414 C   0  0  0  0  0  0  0  0  0  0  0  0
  -44.4584   58.0579   64.3690 C   0  0  0  0  0  0  0  0  0  0  0  0
  -43.5567   59.1269   64.9764 C   0  0  0  0  0  0  0  0  0  0  0  0
  -42.2929   58.4892   65.5531 C   0  0  0  0  0  0  0  0  0  0  0  0
  -41.7930   59.2397   66.7867 C   0  0  0  0  0  0  0  0  0  0  0  0
  -42.2057   60.7136   66.7638 C   0  0  0  0  0  0  0  0  0  0  0  0
  -41.1801   61.6074   66.0714 C   0  0  0  0  0  0  0  0  0  0  0  0
  7  8  2  0  0  0
  7  6  1  0  0  0
  7  9  1  0  0  0
  6  5  1  0  0  0
  9 10  1  0  0  0
  5  4  1  0  0  0
  4  3  1  0  0  0
  3  2  1  0  0  0
  2  1  1  0  0  0
  1 11  1  0  0  0
 11 12  1  0  0  0
 12 13  2  0  0  0
 13 14  1  0  0  0
 14 15  1  0  0  0
 15 16  1  0  0  0
 16 17  1  0  0  0
 17 18  1  0  0  0
 18 19  1  0  0  0
M  END
> <minimizedAffinity>
-6.78285

> <CNNscore>
0.6318469644

> <CNNaffinity>
6.2085747719

> <CNN_VS>
3.9228692055

> <CNNaffinity_variance>
0.3216469884

$$$$
/media/chris/experiments/cd1a-new-docking/inputs/ligands/4x6d_2_ligand.pdb


 19 18  0  0  0  0  0  0  0  0999 V2000
  -44.5358   59.9824   65.2747 C   0  0  0  0  0  0  0  0  0  0  0  0
  -43.9945   58.6630   64.7416 C   0  0  0  0  0  0  0  0  0  0  0  0
  -42.8904   58.0918   65.6151 C   0  0  0  0  0  0  0  0  0  0  0  0
  -42.2301   59.2007   66.4177 C   0  0  0  0  0  0  0  0  0  0  0  0
  -40.9426   59.6109   65.7259 C   0  0  0  0  0  0  0  0  0  0  0  0
  -40.3451   58.4665   64.9228 C   0  0  0  0  0  0  0  0  0  0  0  0
  -39.5509   59.0319   63.7716 C   0  0  0  0  0  0  0  0  0  0  0  0
  -39.8664   60.1310   63.2755 O   0  0  0  0  0  0  0  0  0  0  0  0
  -38.5747   58.4155   63.2941 O   0  0  0  0  0  0  0  0  0  0  0  0
  -38.3220   57.5879   63.6534 H   0  0  0  0  0  0  0  0  0  0  0  0
  -46.0348   59.8074   65.4705 C   0  0  0  0  0  0  0  0  0  0  0  0
  -46.7907   61.0783   65.1656 C   0  0  0  0  0  0  0  0  0  0  0  0
  -48.2214   61.1720   65.4971 C   0  0  0  0  0  0  0  0  0  0  0  0
  -48.9540   59.9271   65.9305 C   0  0  0  0  0  0  0  0  0  0  0  0
  -50.4549   60.0793   65.7096 C   0  0  0  0  0  0  0  0  0  0  0  0
  -50.7660   60.1522   64.2148 C   0  0  0  0  0  0  0  0  0  0  0  0
  -50.2498   58.9225   63.4690 C   0  0  0  0  0  0  0  0  0  0  0  0
  -50.5855   58.9779   61.9766 C   0  0  0  0  0  0  0  0  0  0  0  0
  -50.2947   57.6659   61.2527 C   0  0  0  0  0  0  0  0  0  0  0  0
  7  8  2  0  0  0
  7  6  1  0  0  0
  7  9  1  0  0  0
  6  5  1  0  0  0
  9 10  1  0  0  0
  5  4  1  0  0  0
  4  3  1  0  0  0
  3  2  1  0  0  0
  2  1  1  0  0  0
  1 11  1  0  0  0
 11 12  1  0  0  0
 12 13  2  0  0  0
 13 14  1  0  0  0
 14 15  1  0  0  0
 15 16  1  0  0  0
 16 17  1  0  0  0
 17 18  1  0  0  0
 18 19  1  0  0  0
M  END
> <minimizedAffinity>
-6.39228

> <CNNscore>
0.6311960220

> <CNNaffinity>
6.0383138657

> <CNN_VS>
3.8113596439

> <CNNaffinity_variance>
0.1963206381

$$$$
/media/chris/experiments/cd1a-new-docking/inputs/ligands/4x6d_2_ligand.pdb


 19 18  0  0  0  0  0  0  0  0999 V2000
  -39.5688   59.1038   64.9978 C   0  0  0  0  0  0  0  0  0  0  0  0
  -38.8580   57.9985   64.2290 C   0  0  0  0  0  0  0  0  0  0  0  0
  -38.4693   58.4249   62.8235 C   0  0  0  0  0  0  0  0  0  0  0  0
  -37.6170   57.3514   62.1669 C   0  0  0  0  0  0  0  0  0  0  0  0
  -37.0599   57.8930   60.8627 C   0  0  0  0  0  0  0  0  0  0  0  0
  -36.1682   56.8777   60.1660 C   0  0  0  0  0  0  0  0  0  0  0  0
  -34.7658   56.9958   60.7093 C   0  0  0  0  0  0  0  0  0  0  0  0
  -34.1353   55.9721   61.0381 O   0  0  0  0  0  0  0  0  0  0  0  0
  -34.2155   58.1093   60.8437 O   0  0  0  0  0  0  0  0  0  0  0  0
  -34.6731   58.8904   60.6021 H   0  0  0  0  0  0  0  0  0  0  0  0
  -41.0487   58.7505   65.0282 C   0  0  0  0  0  0  0  0  0  0  0  0
  -41.6973   59.1700   66.3255 C   0  0  0  0  0  0  0  0  0  0  0  0
  -43.1284   59.5123   66.3470 C   0  0  0  0  0  0  0  0  0  0  0  0
  -43.8663   59.6499   65.0390 C   0  0  0  0  0  0  0  0  0  0  0  0
  -44.5460   58.3382   64.6619 C   0  0  0  0  0  0  0  0  0  0  0  0
  -44.9780   57.5843   65.9195 C   0  0  0  0  0  0  0  0  0  0  0  0
  -46.4801   57.3044   65.9232 C   0  0  0  0  0  0  0  0  0  0  0  0
  -47.2864   58.5109   65.4356 C   0  0  0  0  0  0  0  0  0  0  0  0
  -47.5534   59.5322   66.5381 C   0  0  0  0  0  0  0  0  0  0  0  0
  7  8  2  0  0  0
  7  6  1  0  0  0
  7  9  1  0  0  0
  6  5  1  0  0  0
  9 10  1  0  0  0
  5  4  1  0  0  0
  4  3  1  0  0  0
  3  2  1  0  0  0
  2  1  1  0  0  0
  1 11  1  0  0  0
 11 12  1  0  0  0
 12 13  2  0  0  0
 13 14  1  0  0  0
 14 15  1  0  0  0
 15 16  1  0  0  0
 16 17  1  0  0  0
 17 18  1  0  0  0
 18 19  1  0  0  0
M  END
> <minimizedAffinity>
-6.26568

> <CNNscore>
0.6294462681

> <CNNaffinity>
5.7566308975

> <CNN_VS>
3.6234898567

> <CNNaffinity_variance>
0.0993660018

$$$$
/media/chris/experiments/cd1a-new-docking/inputs/ligands/4x6d_2_ligand.pdb


 19 18  0  0  0  0  0  0  0  0999 V2000
  -49.2256   58.2905   64.0434 C   0  0  0  0  0  0  0  0  0  0  0  0
  -49.2838   58.5629   62.5466 C   0  0  0  0  0  0  0  0  0  0  0  0
  -50.6970   58.4815   61.9950 C   0  0  0  0  0  0  0  0  0  0  0  0
  -50.6761   57.9316   60.5783 C   0  0  0  0  0  0  0  0  0  0  0  0
  -49.4356   58.4435   59.8687 C   0  0  0  0  0  0  0  0  0  0  0  0
  -49.1346   57.6429   58.6117 C   0  0  0  0  0  0  0  0  0  0  0  0
  -47.8189   56.9257   58.7854 C   0  0  0  0  0  0  0  0  0  0  0  0
  -46.7760   57.5758   58.9932 O   0  0  0  0  0  0  0  0  0  0  0  0
  -47.7473   55.6801   58.7207 O   0  0  0  0  0  0  0  0  0  0  0  0
  -48.5202   55.1738   58.5652 H   0  0  0  0  0  0  0  0  0  0  0  0
  -48.1313   59.1771   64.6197 C   0  0  0  0  0  0  0  0  0  0  0  0
  -47.8419   58.8416   66.0631 C   0  0  0  0  0  0  0  0  0  0  0  0
  -46.5630   58.2077   66.4212 C   0  0  0  0  0  0  0  0  0  0  0  0
  -45.6624   57.7068   65.3202 C   0  0  0  0  0  0  0  0  0  0  0  0
  -44.2948   58.3769   65.3945 C   0  0  0  0  0  0  0  0  0  0  0  0
  -44.4224   59.8744   65.1159 C   0  0  0  0  0  0  0  0  0  0  0  0
  -43.0794   60.5909   65.2488 C   0  0  0  0  0  0  0  0  0  0  0  0
  -42.3185   60.6274   63.9210 C   0  0  0  0  0  0  0  0  0  0  0  0
  -42.2767   62.0203   63.2980 C   0  0  0  0  0  0  0  0  0  0  0  0
  7  8  2  0  0  0
  7  6  1  0  0  0
  7  9  1  0  0  0
  6  5  1  0  0  0
  9 10  1  0  0  0
  5  4  1  0  0  0
  4  3  1  0  0  0
  3  2  1  0  0  0
  2  1  1  0  0  0
  1 11  1  0  0  0
 11 12  1  0  0  0
 12 13  2  0  0  0
 13 14  1  0  0  0
 14 15  1  0  0  0
 15 16  1  0  0  0
 16 17  1  0  0  0
 17 18  1  0  0  0
 18 19  1  0  0  0
M  END
> <minimizedAffinity>
-6.54788

> <CNNscore>
0.5742251873

> <CNNaffinity>
6.1185812950

> <CNN_VS>
3.5134434700

> <CNNaffinity_variance>
0.5344021916

$$$$
