/media/chris/experiments/cd1a-new-docking/inputs/ligands/4x6d_2_ligand.pdb


 19 18  0  0  0  0  0  0  0  0999 V2000
  -46.7541   57.8588   65.9770 C   0  0  0  0  0  0  0  0  0  0  0  0
  -45.8948   58.9574   65.3665 C   0  0  0  0  0  0  0  0  0  0  0  0
  -45.0517   59.6803   66.4032 C   0  0  0  0  0  0  0  0  0  0  0  0
  -43.7324   60.1215   65.7910 C   0  0  0  0  0  0  0  0  0  0  0  0
  -42.7181   60.3281   66.9014 C   0  0  0  0  0  0  0  0  0  0  0  0
  -41.2951   60.1096   66.4125 C   0  0  0  0  0  0  0  0  0  0  0  0
  -40.8886   61.2704   65.5392 C   0  0  0  0  0  0  0  0  0  0  0  0
  -40.7276   61.1042   64.3143 O   0  0  0  0  0  0  0  0  0  0  0  0
  -40.7023   62.4082   66.0204 O   0  0  0  0  0  0  0  0  0  0  0  0
  -40.8182   62.5533   66.9388 H   0  0  0  0  0  0  0  0  0  0  0  0
  -48.0940   57.8828   65.2559 C   0  0  0  0  0  0  0  0  0  0  0  0
  -48.4592   59.2753   64.8006 C   0  0  0  0  0  0  0  0  0  0  0  0
  -49.2604   59.4556   63.5796 C   0  0  0  0  0  0  0  0  0  0  0  0
  -49.5138   58.2648   62.6896 C   0  0  0  0  0  0  0  0  0  0  0  0
  -50.7428   58.4948   61.8168 C   0  0  0  0  0  0  0  0  0  0  0  0
  -50.8087   57.4455   60.7072 C   0  0  0  0  0  0  0  0  0  0  0  0
  -50.3198   58.0032   59.3715 C   0  0  0  0  0  0  0  0  0  0  0  0
  -49.0578   57.2881   58.8822 C   0  0  0  0  0  0  0  0  0  0  0  0
  -47.7828   58.0845   59.1473 C   0  0  0  0  0  0  0  0  0  0  0  0
  7  8  2  0  0  0
  7  6  1  0  0  0
  7  9  1  0  0  0
  6  5  1  0  0  0
  9 10  1  0  0  0
  5  4  1  0  0  0
  4  3  1  0  0  0
  3  2  1  0  0  0
  2  1  1  0  0  0
  1 11  1  0  0  0
 11 12  1  0  0  0
 12 13  2  0  0  0
 13 14  1  0  0  0
 14 15  1  0  0  0
 15 16  1  0  0  0
 16 17  1  0  0  0
 17 18  1  0  0  0
 18 19  1  0  0  0
M  END
> <minimizedAffinity>
-6.84419

> <CNNscore>
0.8761172891

> <CNNaffinity>
6.4726395607

> <CNN_VS>
5.6707916260

> <CNNaffinity_variance>
0.5919538736

$$$$
/media/chris/experiments/cd1a-new-docking/inputs/ligands/4x6d_2_ligand.pdb


 19 18  0  0  0  0  0  0  0  0999 V2000
  -45.9382   60.2006   65.6810 C   0  0  0  0  0  0  0  0  0  0  0  0
  -45.0454   59.0624   65.2065 C   0  0  0  0  0  0  0  0  0  0  0  0
  -43.6006   59.2354   65.6432 C   0  0  0  0  0  0  0  0  0  0  0  0
  -43.5044   60.2945   66.7291 C   0  0  0  0  0  0  0  0  0  0  0  0
  -42.0643   60.3887   67.2000 C   0  0  0  0  0  0  0  0  0  0  0  0
  -41.0895   59.9300   66.1270 C   0  0  0  0  0  0  0  0  0  0  0  0
  -40.5685   61.1352   65.3845 C   0  0  0  0  0  0  0  0  0  0  0  0
  -40.3912   61.0808   64.1518 O   0  0  0  0  0  0  0  0  0  0  0  0
  -40.3024   62.1990   65.9830 O   0  0  0  0  0  0  0  0  0  0  0  0
  -40.4289   62.2597   66.9094 H   0  0  0  0  0  0  0  0  0  0  0  0
  -47.3714   59.6897   65.6528 C   0  0  0  0  0  0  0  0  0  0  0  0
  -48.3551   60.7609   66.0585 C   0  0  0  0  0  0  0  0  0  0  0  0
  -49.7792   60.6074   65.7214 C   0  0  0  0  0  0  0  0  0  0  0  0
  -50.1938   59.4962   64.7899 C   0  0  0  0  0  0  0  0  0  0  0  0
  -51.0769   60.0328   63.6687 C   0  0  0  0  0  0  0  0  0  0  0  0
  -50.4506   59.7269   62.3083 C   0  0  0  0  0  0  0  0  0  0  0  0
  -50.1539   58.2371   62.1442 C   0  0  0  0  0  0  0  0  0  0  0  0
  -50.9005   57.6347   60.9513 C   0  0  0  0  0  0  0  0  0  0  0  0
  -50.0117   57.4546   59.7234 C   0  0  0  0  0  0  0  0  0  0  0  0
  7  8  2  0  0  0
  7  6  1  0  0  0
  7  9  1  0  0  0
  6  5  1  0  0  0
  9 10  1  0  0  0
  5  4  1  0  0  0
  4  3  1  0  0  0
  3  2  1  0  0  0
  2  1  1  0  0  0
  1 11  1  0  0  0
 11 12  1  0  0  0
 12 13  2  0  0  0
 13 14  1  0  0  0
 14 15  1  0  0  0
 15 16  1  0  0  0
 16 17  1  0  0  0
 17 18  1  0  0  0
 18 19  1  0  0  0
M  END
> <minimizedAffinity>
-6.64022

> <CNNscore>
0.8188062906

> <CNNaffinity>
6.2136869431

> <CNN_VS>
5.0878057480

> <CNNaffinity_variance>
0.5197912455

$$$$
/media/chris/experiments/cd1a-new-docking/inputs/ligands/4x6d_2_ligand.pdb


 19 18  0  0  0  0  0  0  0  0999 V2000
  -43.5297   59.5547   64.7930 C   0  0  0  0  0  0  0  0  0  0  0  0
  -43.2148   58.3910   65.7228 C   0  0  0  0  0  0  0  0  0  0  0  0
  -41.7771   58.4109   66.2135 C   0  0  0  0  0  0  0  0  0  0  0  0
  -41.0854   59.6854   65.7584 C   0  0  0  0  0  0  0  0  0  0  0  0
  -39.9404   59.3208   64.8307 C   0  0  0  0  0  0  0  0  0  0  0  0
  -38.5946   59.7266   65.4101 C   0  0  0  0  0  0  0  0  0  0  0  0
  -38.2672   61.1299   64.9642 C   0  0  0  0  0  0  0  0  0  0  0  0
  -37.6881   61.3208   63.8770 O   0  0  0  0  0  0  0  0  0  0  0  0
  -38.5618   62.1184   65.6693 O   0  0  0  0  0  0  0  0  0  0  0  0
  -38.9972   61.9956   66.4898 H   0  0  0  0  0  0  0  0  0  0  0  0
  -44.7153   60.2990   65.3897 C   0  0  0  0  0  0  0  0  0  0  0  0
  -45.1830   59.6651   66.6778 C   0  0  0  0  0  0  0  0  0  0  0  0
  -46.4974   59.0056   66.7297 C   0  0  0  0  0  0  0  0  0  0  0  0
  -47.4417   59.1660   65.5648 C   0  0  0  0  0  0  0  0  0  0  0  0
  -48.2296   57.8823   65.3278 C   0  0  0  0  0  0  0  0  0  0  0  0
  -49.6627   58.2097   64.9087 C   0  0  0  0  0  0  0  0  0  0  0  0
  -50.1789   59.4724   65.5969 C   0  0  0  0  0  0  0  0  0  0  0  0
  -50.6028   60.5407   64.5857 C   0  0  0  0  0  0  0  0  0  0  0  0
  -51.1776   59.9486   63.3015 C   0  0  0  0  0  0  0  0  0  0  0  0
  7  8  2  0  0  0
  7  6  1  0  0  0
  7  9  1  0  0  0
  6  5  1  0  0  0
  9 10  1  0  0  0
  5  4  1  0  0  0
  4  3  1  0  0  0
  3  2  1  0  0  0
  2  1  1  0  0  0
  1 11  1  0  0  0
 11 12  1  0  0  0
 12 13  2  0  0  0
 13 14  1  0  0  0
 14 15  1  0  0  0
 15 16  1  0  0  0
 16 17  1  0  0  0
 17 18  1  0  0  0
 18 19  1  0  0  0
M  END
> <minimizedAffinity>
-6.24753

> <CNNscore>
0.7490794063

> <CNNaffinity>
6.1377863884

> <CNN_VS>
4.5976891518

> <CNNaffinity_variance>
0.1738806069

$$$$
/media/chris/experiments/cd1a-new-docking/inputs/ligands/4x6d_2_ligand.pdb


 19 18  0  0  0  0  0  0  0  0999 V2000
  -49.1212   60.1403   65.9915 C   0  0  0  0  0  0  0  0  0  0  0  0
  -47.9416   59.2170   66.2634 C   0  0  0  0  0  0  0  0  0  0  0  0
  -47.9937   57.9463   65.4323 C   0  0  0  0  0  0  0  0  0  0  0  0
  -46.9638   56.9482   65.9354 C   0  0  0  0  0  0  0  0  0  0  0  0
  -45.6481   57.6700   66.1642 C   0  0  0  0  0  0  0  0  0  0  0  0
  -44.8666   57.8404   64.8711 C   0  0  0  0  0  0  0  0  0  0  0  0
  -44.0928   59.1339   64.9278 C   0  0  0  0  0  0  0  0  0  0  0  0
  -42.8495   59.1224   64.8387 O   0  0  0  0  0  0  0  0  0  0  0  0
  -44.6746   60.2306   65.0682 O   0  0  0  0  0  0  0  0  0  0  0  0
  -45.6086   60.2601   65.1369 H   0  0  0  0  0  0  0  0  0  0  0  0
  -50.1360   59.3469   65.1813 C   0  0  0  0  0  0  0  0  0  0  0  0
  -50.7771   60.1916   64.1065 C   0  0  0  0  0  0  0  0  0  0  0  0
  -50.9544   59.6386   62.7545 C   0  0  0  0  0  0  0  0  0  0  0  0
  -50.2970   58.3257   62.4102 C   0  0  0  0  0  0  0  0  0  0  0  0
  -50.8642   57.7620   61.1119 C   0  0  0  0  0  0  0  0  0  0  0  0
  -49.7512   57.1251   60.2798 C   0  0  0  0  0  0  0  0  0  0  0  0
  -48.8732   58.1796   59.6079 C   0  0  0  0  0  0  0  0  0  0  0  0
  -47.5328   57.5987   59.1505 C   0  0  0  0  0  0  0  0  0  0  0  0
  -47.6406   56.1479   58.6882 C   0  0  0  0  0  0  0  0  0  0  0  0
  7  8  2  0  0  0
  7  6  1  0  0  0
  7  9  1  0  0  0
  6  5  1  0  0  0
  9 10  1  0  0  0
  5  4  1  0  0  0
  4  3  1  0  0  0
  3  2  1  0  0  0
  2  1  1  0  0  0
  1 11  1  0  0  0
 11 12  1  0  0  0
 12 13  2  0  0  0
 13 14  1  0  0  0
 14 15  1  0  0  0
 15 16  1  0  0  0
 16 17  1  0  0  0
 17 18  1  0  0  0
 18 19  1  0  0  0
M  END
> <minimizedAffinity>
-6.90261

> <CNNscore>
0.7426339388

> <CNNaffinity>
6.4428696632

> <CNN_VS>
4.7846937180

> <CNNaffinity_variance>
0.4499921203

$$$$
/media/chris/experiments/cd1a-new-docking/inputs/ligands/4x6d_2_ligand.pdb


 19 18  0  0  0  0  0  0  0  0999 V2000
  -43.6328   59.5023   64.9102 C   0  0  0  0  0  0  0  0  0  0  0  0
  -43.0388   59.8492   66.2685 C   0  0  0  0  0  0  0  0  0  0  0  0
  -41.5321   59.6595   66.3102 C   0  0  0  0  0  0  0  0  0  0  0  0
  -41.1128   58.5753   65.3311 C   0  0  0  0  0  0  0  0  0  0  0  0
  -39.9486   59.0843   64.5004 C   0  0  0  0  0  0  0  0  0  0  0  0
  -38.9824   57.9669   64.1401 C   0  0  0  0  0  0  0  0  0  0  0  0
  -38.4554   58.1994   62.7460 C   0  0  0  0  0  0  0  0  0  0  0  0
  -38.7689   59.2332   62.1240 O   0  0  0  0  0  0  0  0  0  0  0  0
  -37.7062   57.3682   62.1903 O   0  0  0  0  0  0  0  0  0  0  0  0
  -37.4592   56.5850   62.6414 H   0  0  0  0  0  0  0  0  0  0  0  0
  -45.0634   59.0418   65.1492 C   0  0  0  0  0  0  0  0  0  0  0  0
  -45.9773   60.1998   65.4707 C   0  0  0  0  0  0  0  0  0  0  0  0
  -47.4326   59.9874   65.5188 C   0  0  0  0  0  0  0  0  0  0  0  0
  -47.9960   58.6756   65.0326 C   0  0  0  0  0  0  0  0  0  0  0  0
  -49.5139   58.6538   65.1755 C   0  0  0  0  0  0  0  0  0  0  0  0
  -50.1750   59.1215   63.8791 C   0  0  0  0  0  0  0  0  0  0  0  0
  -49.6927   58.3143   62.6749 C   0  0  0  0  0  0  0  0  0  0  0  0
  -50.6992   58.3527   61.5221 C   0  0  0  0  0  0  0  0  0  0  0  0
  -50.5157   57.2033   60.5345 C   0  0  0  0  0  0  0  0  0  0  0  0
  7  8  2  0  0  0
  7  6  1  0  0  0
  7  9  1  0  0  0
  6  5  1  0  0  0
  9 10  1  0  0  0
  5  4  1  0  0  0
  4  3  1  0  0  0
  3  2  1  0  0  0
  2  1  1  0  0  0
  1 11  1  0  0  0
 11 12  1  0  0  0
 12 13  2  0  0  0
 13 14  1  0  0  0
 14 15  1  0  0  0
 15 16  1  0  0  0
 16 17  1  0  0  0
 17 18  1  0  0  0
 18 19  1  0  0  0
M  END
> <minimizedAffinity>
-6.47572

> <CNNscore>
0.7292103767

> <CNNaffinity>
6.1937799454

> <CNN_VS>
4.5165686607

> <CNNaffinity_variance>
0.3635531068

$$$$
/media/chris/experiments/cd1a-new-docking/inputs/ligands/4x6d_2_ligand.pdb


 19 18  0  0  0  0  0  0  0  0999 V2000
  -45.2878   58.3113   64.6435 C   0  0  0  0  0  0  0  0  0  0  0  0
  -44.6427   57.7230   65.8907 C   0  0  0  0  0  0  0  0  0  0  0  0
  -43.3789   58.4624   66.2960 C   0  0  0  0  0  0  0  0  0  0  0  0
  -42.1829   57.9117   65.5367 C   0  0  0  0  0  0  0  0  0  0  0  0
  -41.1508   59.0132   65.3762 C   0  0  0  0  0  0  0  0  0  0  0  0
  -41.4516   60.2024   66.2745 C   0  0  0  0  0  0  0  0  0  0  0  0
  -41.0855   61.4741   65.5504 C   0  0  0  0  0  0  0  0  0  0  0  0
  -41.7238   61.8222   64.5378 O   0  0  0  0  0  0  0  0  0  0  0  0
  -40.1430   62.1941   65.9431 O   0  0  0  0  0  0  0  0  0  0  0  0
  -39.6513   61.9495   66.7023 H   0  0  0  0  0  0  0  0  0  0  0  0
  -46.7524   58.5634   64.9709 C   0  0  0  0  0  0  0  0  0  0  0  0
  -46.9101   59.5190   66.1293 C   0  0  0  0  0  0  0  0  0  0  0  0
  -47.9310   60.5768   66.0669 C   0  0  0  0  0  0  0  0  0  0  0  0
  -48.6483   60.8241   64.7635 C   0  0  0  0  0  0  0  0  0  0  0  0
  -50.1561   60.6847   64.9421 C   0  0  0  0  0  0  0  0  0  0  0  0
  -50.7766   60.0238   63.7113 C   0  0  0  0  0  0  0  0  0  0  0  0
  -50.0236   58.7566   63.3094 C   0  0  0  0  0  0  0  0  0  0  0  0
  -50.4837   58.2267   61.9489 C   0  0  0  0  0  0  0  0  0  0  0  0
  -49.3260   57.9782   60.9855 C   0  0  0  0  0  0  0  0  0  0  0  0
  7  8  2  0  0  0
  7  6  1  0  0  0
  7  9  1  0  0  0
  6  5  1  0  0  0
  9 10  1  0  0  0
  5  4  1  0  0  0
  4  3  1  0  0  0
  3  2  1  0  0  0
  2  1  1  0  0  0
  1 11  1  0  0  0
 11 12  1  0  0  0
 12 13  2  0  0  0
 13 14  1  0  0  0
 14 15  1  0  0  0
 15 16  1  0  0  0
 16 17  1  0  0  0
 17 18  1  0  0  0
 18 19  1  0  0  0
M  END
> <minimizedAffinity>
-6.49438

> <CNNscore>
0.7179137468

> <CNNaffinity>
6.1673140526

> <CNN_VS>
4.4275994301

> <CNNaffinity_variance>
0.3097032309

$$$$
/media/chris/experiments/cd1a-new-docking/inputs/ligands/4x6d_2_ligand.pdb


 19 18  0  0  0  0  0  0  0  0999 V2000
  -41.5350   58.8619   66.0587 C   0  0  0  0  0  0  0  0  0  0  0  0
  -40.4248   59.7883   65.5820 C   0  0  0  0  0  0  0  0  0  0  0  0
  -40.0891   59.5867   64.1141 C   0  0  0  0  0  0  0  0  0  0  0  0
  -39.1171   58.4294   63.9526 C   0  0  0  0  0  0  0  0  0  0  0  0
  -38.4969   58.4957   62.5686 C   0  0  0  0  0  0  0  0  0  0  0  0
  -38.2240   59.9291   62.1415 C   0  0  0  0  0  0  0  0  0  0  0  0
  -38.5624   60.0824   60.6796 C   0  0  0  0  0  0  0  0  0  0  0  0
  -39.4426   60.8901   60.3235 O   0  0  0  0  0  0  0  0  0  0  0  0
  -37.9777   59.4076   59.8057 O   0  0  0  0  0  0  0  0  0  0  0  0
  -37.3132   58.7952   60.0533 H   0  0  0  0  0  0  0  0  0  0  0  0
  -42.7349   59.7346   66.3968 C   0  0  0  0  0  0  0  0  0  0  0  0
  -43.6486   59.9141   65.2083 C   0  0  0  0  0  0  0  0  0  0  0  0
  -45.1015   60.0203   65.4161 C   0  0  0  0  0  0  0  0  0  0  0  0
  -45.6672   59.7289   66.7833 C   0  0  0  0  0  0  0  0  0  0  0  0
  -47.1399   59.3455   66.6878 C   0  0  0  0  0  0  0  0  0  0  0  0
  -47.9530   60.5048   66.1120 C   0  0  0  0  0  0  0  0  0  0  0  0
  -49.4297   60.1416   65.9642 C   0  0  0  0  0  0  0  0  0  0  0  0
  -49.6167   58.7214   65.4243 C   0  0  0  0  0  0  0  0  0  0  0  0
  -49.4538   58.6354   63.9090 C   0  0  0  0  0  0  0  0  0  0  0  0
  7  8  2  0  0  0
  7  6  1  0  0  0
  7  9  1  0  0  0
  6  5  1  0  0  0
  9 10  1  0  0  0
  5  4  1  0  0  0
  4  3  1  0  0  0
  3  2  1  0  0  0
  2  1  1  0  0  0
  1 11  1  0  0  0
 11 12  1  0  0  0
 12 13  2  0  0  0
 13 14  1  0  0  0
 14 15  1  0  0  0
 15 16  1  0  0  0
 16 17  1  0  0  0
 17 18  1  0  0  0
 18 19  1  0  0  0
M  END
> <minimizedAffinity>
-6.49304

> <CNNscore>
0.6916284561

> <CNNaffinity>
5.9824886322

> <CNN_VS>
4.1376595497

> <CNNaffinity_variance>
0.1608826667

$$$$
/media/chris/experiments/cd1a-new-docking/inputs/ligands/4x6d_2_ligand.pdb


 19 18  0  0  0  0  0  0  0  0999 V2000
  -48.0896   58.7359   64.5821 C   0  0  0  0  0  0  0  0  0  0  0  0
  -47.9932   60.2452   64.7568 C   0  0  0  0  0  0  0  0  0  0  0  0
  -46.8683   60.6518   65.6934 C   0  0  0  0  0  0  0  0  0  0  0  0
  -45.6836   59.7141   65.5280 C   0  0  0  0  0  0  0  0  0  0  0  0
  -44.4339   60.5382   65.2754 C   0  0  0  0  0  0  0  0  0  0  0  0
  -43.1763   59.6854   65.3288 C   0  0  0  0  0  0  0  0  0  0  0  0
  -42.5257   59.8480   66.6799 C   0  0  0  0  0  0  0  0  0  0  0  0
  -41.7621   58.9643   67.1158 O   0  0  0  0  0  0  0  0  0  0  0  0
  -42.7396   60.8576   67.3840 O   0  0  0  0  0  0  0  0  0  0  0  0
  -43.3104   61.5327   67.0739 H   0  0  0  0  0  0  0  0  0  0  0  0
  -49.4754   58.4346   64.0300 C   0  0  0  0  0  0  0  0  0  0  0  0
  -50.0092   59.5797   63.2033 C   0  0  0  0  0  0  0  0  0  0  0  0
  -50.3402   59.3624   61.7861 C   0  0  0  0  0  0  0  0  0  0  0  0
  -49.9352   58.0654   61.1318 C   0  0  0  0  0  0  0  0  0  0  0  0
  -50.3030   58.0692   59.6520 C   0  0  0  0  0  0  0  0  0  0  0  0
  -49.0788   57.7326   58.8008 C   0  0  0  0  0  0  0  0  0  0  0  0
  -47.8267   57.5513   59.6574 C   0  0  0  0  0  0  0  0  0  0  0  0
  -46.5569   57.9576   58.9051 C   0  0  0  0  0  0  0  0  0  0  0  0
  -46.8437   58.5178   57.5144 C   0  0  0  0  0  0  0  0  0  0  0  0
  7  8  2  0  0  0
  7  6  1  0  0  0
  7  9  1  0  0  0
  6  5  1  0  0  0
  9 10  1  0  0  0
  5  4  1  0  0  0
  4  3  1  0  0  0
  3  2  1  0  0  0
  2  1  1  0  0  0
  1 11  1  0  0  0
 11 12  1  0  0  0
 12 13  2  0  0  0
 13 14  1  0  0  0
 14 15  1  0  0  0
 15 16  1  0  0  0
 16 17  1  0  0  0
 17 18  1  0  0  0
 18 19  1  0  0  0
M  END
> <minimizedAffinity>
-7.17633

> <CNNscore>
0.6529666781

> <CNNaffinity>
6.2446198463

> <CNN_VS>
4.0775284767

> <CNNaffinity_variance>
0.2007952929

$$$$
/media/chris/experiments/cd1a-new-docking/inputs/ligands/4x6d_2_ligand.pdb


 19 18  0  0  0  0  0  0  0  0999 V2000
  -44.4426   57.1427   65.1516 C   0  0  0  0  0  0  0  0  0  0  0  0
  -43.3525   58.2007   65.0510 C   0  0  0  0  0  0  0  0  0  0  0  0
  -43.7425   59.5040   65.7274 C   0  0  0  0  0  0  0  0  0  0  0  0
  -43.7235   60.6430   64.7212 C   0  0  0  0  0  0  0  0  0  0  0  0
  -42.2905   61.1035   64.5244 C   0  0  0  0  0  0  0  0  0  0  0  0
  -41.5939   61.3601   65.8513 C   0  0  0  0  0  0  0  0  0  0  0  0
  -40.1783   60.8447   65.7745 C   0  0  0  0  0  0  0  0  0  0  0  0
  -39.2214   61.6435   65.7845 O   0  0  0  0  0  0  0  0  0  0  0  0
  -39.9384   59.6212   65.6954 O   0  0  0  0  0  0  0  0  0  0  0  0
  -40.6441   59.0049   65.6864 H   0  0  0  0  0  0  0  0  0  0  0  0
  -45.4335   57.6165   66.2049 C   0  0  0  0  0  0  0  0  0  0  0  0
  -46.8067   57.0282   65.9856 C   0  0  0  0  0  0  0  0  0  0  0  0
  -47.8976   57.8872   65.4985 C   0  0  0  0  0  0  0  0  0  0  0  0
  -47.6816   59.3785   65.4375 C   0  0  0  0  0  0  0  0  0  0  0  0
  -48.7707   60.1138   66.2108 C   0  0  0  0  0  0  0  0  0  0  0  0
  -50.1002   60.0324   65.4608 C   0  0  0  0  0  0  0  0  0  0  0  0
  -49.9534   60.4596   64.0012 C   0  0  0  0  0  0  0  0  0  0  0  0
  -51.0247   59.8253   63.1105 C   0  0  0  0  0  0  0  0  0  0  0  0
  -50.4784   58.7039   62.2307 C   0  0  0  0  0  0  0  0  0  0  0  0
  7  8  2  0  0  0
  7  6  1  0  0  0
  7  9  1  0  0  0
  6  5  1  0  0  0
  9 10  1  0  0  0
  5  4  1  0  0  0
  4  3  1  0  0  0
  3  2  1  0  0  0
  2  1  1  0  0  0
  1 11  1  0  0  0
 11 12  1  0  0  0
 12 13  2  0  0  0
 13 14  1  0  0  0
 14 15  1  0  0  0
 15 16  1  0  0  0
 16 17  1  0  0  0
 17 18  1  0  0  0
 18 19  1  0  0  0
M  END
> <minimizedAffinity>
-6.27294

> <CNNscore>
0.6476318240

> <CNNaffinity>
6.1188383102

> <CNN_VS>
3.9627544880

> <CNNaffinity_variance>
0.1968387067

$$$$
