/media/chris/experiments/cd1a-new-docking/inputs/ligands/4x6d_2_ligand.pdb


 19 18  0  0  0  0  0  0  0  0999 V2000
  -45.8322   60.2752   65.6312 C   0  0  0  0  0  0  0  0  0  0  0  0
  -45.2351   58.8757   65.5799 C   0  0  0  0  0  0  0  0  0  0  0  0
  -43.9285   58.8286   64.8062 C   0  0  0  0  0  0  0  0  0  0  0  0
  -42.8319   58.2214   65.6656 C   0  0  0  0  0  0  0  0  0  0  0  0
  -41.6184   59.1329   65.6335 C   0  0  0  0  0  0  0  0  0  0  0  0
  -41.8840   60.4501   66.3449 C   0  0  0  0  0  0  0  0  0  0  0  0
  -41.3029   61.5783   65.5295 C   0  0  0  0  0  0  0  0  0  0  0  0
  -41.7597   61.8302   64.3973 O   0  0  0  0  0  0  0  0  0  0  0  0
  -40.3599   62.2726   65.9648 O   0  0  0  0  0  0  0  0  0  0  0  0
  -40.0029   62.0987   66.8135 H   0  0  0  0  0  0  0  0  0  0  0  0
  -47.2604   60.1741   65.1157 C   0  0  0  0  0  0  0  0  0  0  0  0
  -47.6466   58.7458   64.8148 C   0  0  0  0  0  0  0  0  0  0  0  0
  -48.8435   58.4703   64.0044 C   0  0  0  0  0  0  0  0  0  0  0  0
  -49.7807   59.6053   63.6760 C   0  0  0  0  0  0  0  0  0  0  0  0
  -50.6825   59.2385   62.5024 C   0  0  0  0  0  0  0  0  0  0  0  0
  -50.2345   57.9146   61.8835 C   0  0  0  0  0  0  0  0  0  0  0  0
  -51.0029   57.6014   60.6004 C   0  0  0  0  0  0  0  0  0  0  0  0
  -50.2351   58.0454   59.3527 C   0  0  0  0  0  0  0  0  0  0  0  0
  -48.7217   58.0365   59.5519 C   0  0  0  0  0  0  0  0  0  0  0  0
  7  8  2  0  0  0
  7  6  1  0  0  0
  7  9  1  0  0  0
  6  5  1  0  0  0
  9 10  1  0  0  0
  5  4  1  0  0  0
  4  3  1  0  0  0
  3  2  1  0  0  0
  2  1  1  0  0  0
  1 11  1  0  0  0
 11 12  1  0  0  0
 12 13  2  0  0  0
 13 14  1  0  0  0
 14 15  1  0  0  0
 15 16  1  0  0  0
 16 17  1  0  0  0
 17 18  1  0  0  0
 18 19  1  0  0  0
M  END
> <minimizedAffinity>
-6.82928

> <CNNscore>
0.8030256629

> <CNNaffinity>
6.3399176598

> <CNN_VS>
5.0911164284

> <CNNaffinity_variance>
0.4693129957

$$$$
/media/chris/experiments/cd1a-new-docking/inputs/ligands/4x6d_2_ligand.pdb


 19 18  0  0  0  0  0  0  0  0999 V2000
  -46.3335   59.8623   66.4234 C   0  0  0  0  0  0  0  0  0  0  0  0
  -45.1506   58.9257   66.2199 C   0  0  0  0  0  0  0  0  0  0  0  0
  -43.9113   59.6524   65.7258 C   0  0  0  0  0  0  0  0  0  0  0  0
  -43.0920   60.1523   66.9042 C   0  0  0  0  0  0  0  0  0  0  0  0
  -41.6373   59.7753   66.6890 C   0  0  0  0  0  0  0  0  0  0  0  0
  -41.4847   58.7049   65.6201 C   0  0  0  0  0  0  0  0  0  0  0  0
  -40.2763   59.0198   64.7740 C   0  0  0  0  0  0  0  0  0  0  0  0
  -39.5287   58.1006   64.3863 O   0  0  0  0  0  0  0  0  0  0  0  0
  -40.0001   60.1948   64.4517 O   0  0  0  0  0  0  0  0  0  0  0  0
  -40.5498   60.8994   64.7334 H   0  0  0  0  0  0  0  0  0  0  0  0
  -47.2065   59.7609   65.1811 C   0  0  0  0  0  0  0  0  0  0  0  0
  -47.8162   61.0930   64.8157 C   0  0  0  0  0  0  0  0  0  0  0  0
  -49.2737   61.2051   64.6473 C   0  0  0  0  0  0  0  0  0  0  0  0
  -50.1057   59.9475   64.6264 C   0  0  0  0  0  0  0  0  0  0  0  0
  -51.1728   60.0241   63.5399 C   0  0  0  0  0  0  0  0  0  0  0  0
  -50.5691   59.6783   62.1789 C   0  0  0  0  0  0  0  0  0  0  0  0
  -50.2537   58.1877   62.0624 C   0  0  0  0  0  0  0  0  0  0  0  0
  -50.9471   57.5505   60.8555 C   0  0  0  0  0  0  0  0  0  0  0  0
  -50.3612   58.0095   59.5228 C   0  0  0  0  0  0  0  0  0  0  0  0
  7  8  2  0  0  0
  7  6  1  0  0  0
  7  9  1  0  0  0
  6  5  1  0  0  0
  9 10  1  0  0  0
  5  4  1  0  0  0
  4  3  1  0  0  0
  3  2  1  0  0  0
  2  1  1  0  0  0
  1 11  1  0  0  0
 11 12  1  0  0  0
 12 13  2  0  0  0
 13 14  1  0  0  0
 14 15  1  0  0  0
 15 16  1  0  0  0
 16 17  1  0  0  0
 17 18  1  0  0  0
 18 19  1  0  0  0
M  END
> <minimizedAffinity>
-6.65817

> <CNNscore>
0.7421586514

> <CNNaffinity>
6.0634822845

> <CNN_VS>
4.5000658035

> <CNNaffinity_variance>
0.2529225051

$$$$
/media/chris/experiments/cd1a-new-docking/inputs/ligands/4x6d_2_ligand.pdb


 19 18  0  0  0  0  0  0  0  0999 V2000
  -47.5719   58.3199   65.8014 C   0  0  0  0  0  0  0  0  0  0  0  0
  -46.6647   57.1097   65.9751 C   0  0  0  0  0  0  0  0  0  0  0  0
  -45.1916   57.4680   65.8771 C   0  0  0  0  0  0  0  0  0  0  0  0
  -45.0084   58.6992   65.0051 C   0  0  0  0  0  0  0  0  0  0  0  0
  -43.5241   58.9769   64.8492 C   0  0  0  0  0  0  0  0  0  0  0  0
  -43.1554   60.3661   65.3450 C   0  0  0  0  0  0  0  0  0  0  0  0
  -42.3595   60.2409   66.6202 C   0  0  0  0  0  0  0  0  0  0  0  0
  -41.3435   59.5193   66.6539 O   0  0  0  0  0  0  0  0  0  0  0  0
  -42.7004   60.8469   67.6581 O   0  0  0  0  0  0  0  0  0  0  0  0
  -43.4611   61.3940   67.6528 H   0  0  0  0  0  0  0  0  0  0  0  0
  -48.7818   57.8637   64.9991 C   0  0  0  0  0  0  0  0  0  0  0  0
  -49.6514   59.0275   64.5878 C   0  0  0  0  0  0  0  0  0  0  0  0
  -50.2363   59.0583   63.2379 C   0  0  0  0  0  0  0  0  0  0  0  0
  -49.7806   58.0423   62.2208 C   0  0  0  0  0  0  0  0  0  0  0  0
  -50.8478   57.8320   61.1522 C   0  0  0  0  0  0  0  0  0  0  0  0
  -50.1951   57.5244   59.8047 C   0  0  0  0  0  0  0  0  0  0  0  0
  -49.2428   56.3330   59.8964 C   0  0  0  0  0  0  0  0  0  0  0  0
  -47.9729   56.5528   59.0704 C   0  0  0  0  0  0  0  0  0  0  0  0
  -47.5852   58.0249   58.9568 C   0  0  0  0  0  0  0  0  0  0  0  0
  7  8  2  0  0  0
  7  6  1  0  0  0
  7  9  1  0  0  0
  6  5  1  0  0  0
  9 10  1  0  0  0
  5  4  1  0  0  0
  4  3  1  0  0  0
  3  2  1  0  0  0
  2  1  1  0  0  0
  1 11  1  0  0  0
 11 12  1  0  0  0
 12 13  2  0  0  0
 13 14  1  0  0  0
 14 15  1  0  0  0
 15 16  1  0  0  0
 16 17  1  0  0  0
 17 18  1  0  0  0
 18 19  1  0  0  0
M  END
> <minimizedAffinity>
-6.84004

> <CNNscore>
0.7414421439

> <CNNaffinity>
6.4394583702

> <CNN_VS>
4.7744855881

> <CNNaffinity_variance>
0.4093158245

$$$$
/media/chris/experiments/cd1a-new-docking/inputs/ligands/4x6d_2_ligand.pdb


 19 18  0  0  0  0  0  0  0  0999 V2000
  -43.9855   58.3960   65.9250 C   0  0  0  0  0  0  0  0  0  0  0  0
  -43.2605   59.6669   66.3459 C   0  0  0  0  0  0  0  0  0  0  0  0
  -41.8021   59.4176   66.6909 C   0  0  0  0  0  0  0  0  0  0  0  0
  -40.9198   60.4588   66.0221 C   0  0  0  0  0  0  0  0  0  0  0  0
  -39.6580   59.7840   65.5153 C   0  0  0  0  0  0  0  0  0  0  0  0
  -39.9742   58.6176   64.5926 C   0  0  0  0  0  0  0  0  0  0  0  0
  -39.1155   58.7180   63.3566 C   0  0  0  0  0  0  0  0  0  0  0  0
  -38.3156   57.8040   63.0760 O   0  0  0  0  0  0  0  0  0  0  0  0
  -39.1839   59.7096   62.5997 O   0  0  0  0  0  0  0  0  0  0  0  0
  -39.7789   60.4069   62.7937 H   0  0  0  0  0  0  0  0  0  0  0  0
  -45.4651   58.6060   66.2124 C   0  0  0  0  0  0  0  0  0  0  0  0
  -46.2812   57.3842   65.8649 C   0  0  0  0  0  0  0  0  0  0  0  0
  -47.7110   57.5293   65.5486 C   0  0  0  0  0  0  0  0  0  0  0  0
  -48.3817   58.8582   65.7906 C   0  0  0  0  0  0  0  0  0  0  0  0
  -49.8858   58.7532   65.5631 C   0  0  0  0  0  0  0  0  0  0  0  0
  -50.4210   60.0480   64.9521 C   0  0  0  0  0  0  0  0  0  0  0  0
  -50.0013   60.1995   63.4906 C   0  0  0  0  0  0  0  0  0  0  0  0
  -50.8820   59.3676   62.5549 C   0  0  0  0  0  0  0  0  0  0  0  0
  -50.1669   58.1366   62.0041 C   0  0  0  0  0  0  0  0  0  0  0  0
  7  8  2  0  0  0
  7  6  1  0  0  0
  7  9  1  0  0  0
  6  5  1  0  0  0
  9 10  1  0  0  0
  5  4  1  0  0  0
  4  3  1  0  0  0
  3  2  1  0  0  0
  2  1  1  0  0  0
  1 11  1  0  0  0
 11 12  1  0  0  0
 12 13  2  0  0  0
 13 14  1  0  0  0
 14 15  1  0  0  0
 15 16  1  0  0  0
 16 17  1  0  0  0
 17 18  1  0  0  0
 18 19  1  0  0  0
M  END
> <minimizedAffinity>
-6.11315

> <CNNscore>
0.7274991870

> <CNNaffinity>
6.2211003304

> <CNN_VS>
4.5258455276

> <CNNaffinity_variance>
0.2752078772

$$$$
/media/chris/experiments/cd1a-new-docking/inputs/ligands/4x6d_2_ligand.pdb


 19 18  0  0  0  0  0  0  0  0999 V2000
  -40.6268   60.1244   63.9121 C   0  0  0  0  0  0  0  0  0  0  0  0
  -39.8883   59.2281   64.8965 C   0  0  0  0  0  0  0  0  0  0  0  0
  -39.1606   58.0849   64.2096 C   0  0  0  0  0  0  0  0  0  0  0  0
  -38.7070   58.5102   62.8228 C   0  0  0  0  0  0  0  0  0  0  0  0
  -37.6555   57.5342   62.3268 C   0  0  0  0  0  0  0  0  0  0  0  0
  -37.1747   57.8863   60.9281 C   0  0  0  0  0  0  0  0  0  0  0  0
  -35.9671   57.0464   60.5942 C   0  0  0  0  0  0  0  0  0  0  0  0
  -35.8459   56.5513   59.4565 O   0  0  0  0  0  0  0  0  0  0  0  0
  -35.0760   56.8281   61.4422 O   0  0  0  0  0  0  0  0  0  0  0  0
  -35.1491   57.1915   62.3027 H   0  0  0  0  0  0  0  0  0  0  0  0
  -41.8717   60.6396   64.6194 C   0  0  0  0  0  0  0  0  0  0  0  0
  -41.9210   60.1933   66.0610 C   0  0  0  0  0  0  0  0  0  0  0  0
  -43.0317   59.3461   66.5235 C   0  0  0  0  0  0  0  0  0  0  0  0
  -44.2098   59.1222   65.6090 C   0  0  0  0  0  0  0  0  0  0  0  0
  -44.7043   57.6832   65.7079 C   0  0  0  0  0  0  0  0  0  0  0  0
  -45.9825   57.6184   66.5435 C   0  0  0  0  0  0  0  0  0  0  0  0
  -46.4031   59.0003   67.0420 C   0  0  0  0  0  0  0  0  0  0  0  0
  -47.7350   59.4455   66.4327 C   0  0  0  0  0  0  0  0  0  0  0  0
  -47.7013   60.8811   65.9149 C   0  0  0  0  0  0  0  0  0  0  0  0
  7  8  2  0  0  0
  7  6  1  0  0  0
  7  9  1  0  0  0
  6  5  1  0  0  0
  9 10  1  0  0  0
  5  4  1  0  0  0
  4  3  1  0  0  0
  3  2  1  0  0  0
  2  1  1  0  0  0
  1 11  1  0  0  0
 11 12  1  0  0  0
 12 13  2  0  0  0
 13 14  1  0  0  0
 14 15  1  0  0  0
 15 16  1  0  0  0
 16 17  1  0  0  0
 17 18  1  0  0  0
 18 19  1  0  0  0
M  END
> <minimizedAffinity>
-6.11613

> <CNNscore>
0.6931812167

> <CNNaffinity>
5.8693962097

> <CNN_VS>
4.0685553551

> <CNNaffinity_variance>
0.2388373315

$$$$
/media/chris/experiments/cd1a-new-docking/inputs/ligands/4x6d_2_ligand.pdb


 19 18  0  0  0  0  0  0  0  0999 V2000
  -47.7060   58.9745   66.0479 C   0  0  0  0  0  0  0  0  0  0  0  0
  -48.1218   59.2293   64.6057 C   0  0  0  0  0  0  0  0  0  0  0  0
  -49.5403   58.7669   64.3188 C   0  0  0  0  0  0  0  0  0  0  0  0
  -50.1554   59.6147   63.2176 C   0  0  0  0  0  0  0  0  0  0  0  0
  -50.6248   58.7038   62.0976 C   0  0  0  0  0  0  0  0  0  0  0  0
  -49.4767   57.9031   61.5038 C   0  0  0  0  0  0  0  0  0  0  0  0
  -49.9077   57.3308   60.1763 C   0  0  0  0  0  0  0  0  0  0  0  0
  -50.7170   57.9532   59.4611 O   0  0  0  0  0  0  0  0  0  0  0  0
  -49.4712   56.2319   59.7730 O   0  0  0  0  0  0  0  0  0  0  0  0
  -48.8622   55.7490   60.2963 H   0  0  0  0  0  0  0  0  0  0  0  0
  -46.4719   58.0849   66.0098 C   0  0  0  0  0  0  0  0  0  0  0  0
  -45.6851   58.2743   64.7351 C   0  0  0  0  0  0  0  0  0  0  0  0
  -44.2276   58.0720   64.7421 C   0  0  0  0  0  0  0  0  0  0  0  0
  -43.5207   57.8955   66.0625 C   0  0  0  0  0  0  0  0  0  0  0  0
  -42.0642   58.3346   65.9581 C   0  0  0  0  0  0  0  0  0  0  0  0
  -41.7609   59.4154   66.9956 C   0  0  0  0  0  0  0  0  0  0  0  0
  -42.3409   60.7691   66.5883 C   0  0  0  0  0  0  0  0  0  0  0  0
  -41.4483   61.4908   65.5755 C   0  0  0  0  0  0  0  0  0  0  0  0
  -42.0440   61.5163   64.1703 C   0  0  0  0  0  0  0  0  0  0  0  0
  7  8  2  0  0  0
  7  6  1  0  0  0
  7  9  1  0  0  0
  6  5  1  0  0  0
  9 10  1  0  0  0
  5  4  1  0  0  0
  4  3  1  0  0  0
  3  2  1  0  0  0
  2  1  1  0  0  0
  1 11  1  0  0  0
 11 12  1  0  0  0
 12 13  2  0  0  0
 13 14  1  0  0  0
 14 15  1  0  0  0
 15 16  1  0  0  0
 16 17  1  0  0  0
 17 18  1  0  0  0
 18 19  1  0  0  0
M  END
> <minimizedAffinity>
-6.37773

> <CNNscore>
0.6651836038

> <CNNaffinity>
6.1625046730

> <CNN_VS>
4.0991969109

> <CNNaffinity_variance>
0.6635271311

$$$$
/media/chris/experiments/cd1a-new-docking/inputs/ligands/4x6d_2_ligand.pdb


 19 18  0  0  0  0  0  0  0  0999 V2000
  -41.6037   59.4342   66.7907 C   0  0  0  0  0  0  0  0  0  0  0  0
  -41.3003   58.8928   65.4005 C   0  0  0  0  0  0  0  0  0  0  0  0
  -39.9239   59.3020   64.9043 C   0  0  0  0  0  0  0  0  0  0  0  0
  -39.2463   58.1305   64.2128 C   0  0  0  0  0  0  0  0  0  0  0  0
  -38.6618   58.6064   62.8951 C   0  0  0  0  0  0  0  0  0  0  0  0
  -37.7650   57.5536   62.2634 C   0  0  0  0  0  0  0  0  0  0  0  0
  -36.8196   58.2241   61.2979 C   0  0  0  0  0  0  0  0  0  0  0  0
  -37.1311   58.3380   60.0963 O   0  0  0  0  0  0  0  0  0  0  0  0
  -35.7158   58.6698   61.6771 O   0  0  0  0  0  0  0  0  0  0  0  0
  -35.4637   58.5937   62.5763 H   0  0  0  0  0  0  0  0  0  0  0  0
  -42.9085   60.2115   66.6959 C   0  0  0  0  0  0  0  0  0  0  0  0
  -43.5236   60.1061   65.3210 C   0  0  0  0  0  0  0  0  0  0  0  0
  -44.9770   59.9196   65.1857 C   0  0  0  0  0  0  0  0  0  0  0  0
  -45.7928   59.6181   66.4178 C   0  0  0  0  0  0  0  0  0  0  0  0
  -47.1808   60.2404   66.3119 C   0  0  0  0  0  0  0  0  0  0  0  0
  -47.2949   61.0662   65.0308 C   0  0  0  0  0  0  0  0  0  0  0  0
  -48.7169   61.0491   64.4715 C   0  0  0  0  0  0  0  0  0  0  0  0
  -49.4478   59.7476   64.8111 C   0  0  0  0  0  0  0  0  0  0  0  0
  -49.3336   58.6971   63.7095 C   0  0  0  0  0  0  0  0  0  0  0  0
  7  8  2  0  0  0
  7  6  1  0  0  0
  7  9  1  0  0  0
  6  5  1  0  0  0
  9 10  1  0  0  0
  5  4  1  0  0  0
  4  3  1  0  0  0
  3  2  1  0  0  0
  2  1  1  0  0  0
  1 11  1  0  0  0
 11 12  1  0  0  0
 12 13  2  0  0  0
 13 14  1  0  0  0
 14 15  1  0  0  0
 15 16  1  0  0  0
 16 17  1  0  0  0
 17 18  1  0  0  0
 18 19  1  0  0  0
M  END
> <minimizedAffinity>
-6.35584

> <CNNscore>
0.6187492013

> <CNNaffinity>
5.8053908348

> <CNN_VS>
3.5920808315

> <CNNaffinity_variance>
0.1600970030

$$$$
/media/chris/experiments/cd1a-new-docking/inputs/ligands/4x6d_2_ligand.pdb


 19 18  0  0  0  0  0  0  0  0999 V2000
  -43.3233   58.6823   64.8189 C   0  0  0  0  0  0  0  0  0  0  0  0
  -42.0092   58.9365   65.5445 C   0  0  0  0  0  0  0  0  0  0  0  0
  -41.0069   59.6896   64.6865 C   0  0  0  0  0  0  0  0  0  0  0  0
  -39.8139   58.8019   64.3728 C   0  0  0  0  0  0  0  0  0  0  0  0
  -39.1134   59.3357   63.1364 C   0  0  0  0  0  0  0  0  0  0  0  0
  -39.7790   60.5983   62.6124 C   0  0  0  0  0  0  0  0  0  0  0  0
  -39.1267   60.9980   61.3123 C   0  0  0  0  0  0  0  0  0  0  0  0
  -39.7646   60.9214   60.2441 O   0  0  0  0  0  0  0  0  0  0  0  0
  -37.9460   61.4050   61.2789 O   0  0  0  0  0  0  0  0  0  0  0  0
  -37.4501   61.4696   62.0713 H   0  0  0  0  0  0  0  0  0  0  0  0
  -44.2681   59.8164   65.1889 C   0  0  0  0  0  0  0  0  0  0  0  0
  -44.6533   59.7700   66.6481 C   0  0  0  0  0  0  0  0  0  0  0  0
  -46.0433   59.4686   67.0252 C   0  0  0  0  0  0  0  0  0  0  0  0
  -47.0999   59.4290   65.9498 C   0  0  0  0  0  0  0  0  0  0  0  0
  -47.4196   57.9900   65.5598 C   0  0  0  0  0  0  0  0  0  0  0  0
  -48.7964   57.9130   64.9005 C   0  0  0  0  0  0  0  0  0  0  0  0
  -48.8094   58.6007   63.5360 C   0  0  0  0  0  0  0  0  0  0  0  0
  -50.2027   58.5847   62.9022 C   0  0  0  0  0  0  0  0  0  0  0  0
  -50.9427   59.9105   63.0602 C   0  0  0  0  0  0  0  0  0  0  0  0
  7  8  2  0  0  0
  7  6  1  0  0  0
  7  9  1  0  0  0
  6  5  1  0  0  0
  9 10  1  0  0  0
  5  4  1  0  0  0
  4  3  1  0  0  0
  3  2  1  0  0  0
  2  1  1  0  0  0
  1 11  1  0  0  0
 11 12  1  0  0  0
 12 13  2  0  0  0
 13 14  1  0  0  0
 14 15  1  0  0  0
 15 16  1  0  0  0
 16 17  1  0  0  0
 17 18  1  0  0  0
 18 19  1  0  0  0
M  END
> <minimizedAffinity>
-6.56763

> <CNNscore>
0.6079452038

> <CNNaffinity>
6.0279927254

> <CNN_VS>
3.6646893024

> <CNNaffinity_variance>
0.2951415181

$$$$
/media/chris/experiments/cd1a-new-docking/inputs/ligands/4x6d_2_ligand.pdb


 19 18  0  0  0  0  0  0  0  0999 V2000
  -44.8906   60.2159   65.4058 C   0  0  0  0  0  0  0  0  0  0  0  0
  -44.2297   59.7721   66.7035 C   0  0  0  0  0  0  0  0  0  0  0  0
  -42.7134   59.8386   66.6367 C   0  0  0  0  0  0  0  0  0  0  0  0
  -42.1547   58.5330   66.0955 C   0  0  0  0  0  0  0  0  0  0  0  0
  -40.8922   58.8265   65.3054 C   0  0  0  0  0  0  0  0  0  0  0  0
  -40.8730   60.2545   64.7836 C   0  0  0  0  0  0  0  0  0  0  0  0
  -39.7050   60.9883   65.3940 C   0  0  0  0  0  0  0  0  0  0  0  0
  -38.5859   60.4422   65.4521 O   0  0  0  0  0  0  0  0  0  0  0  0
  -39.8343   62.1431   65.8527 O   0  0  0  0  0  0  0  0  0  0  0  0
  -40.6675   62.5703   65.8183 H   0  0  0  0  0  0  0  0  0  0  0  0
  -46.3943   60.2030   65.6394 C   0  0  0  0  0  0  0  0  0  0  0  0
  -47.1028   61.2208   64.7782 C   0  0  0  0  0  0  0  0  0  0  0  0
  -48.5434   61.4558   64.9644 C   0  0  0  0  0  0  0  0  0  0  0  0
  -49.3265   60.5246   65.8554 C   0  0  0  0  0  0  0  0  0  0  0  0
  -50.4815   59.8886   65.0895 C   0  0  0  0  0  0  0  0  0  0  0  0
  -49.9550   58.8348   64.1155 C   0  0  0  0  0  0  0  0  0  0  0  0
  -50.5279   59.0255   62.7118 C   0  0  0  0  0  0  0  0  0  0  0  0
  -50.0410   57.9432   61.7450 C   0  0  0  0  0  0  0  0  0  0  0  0
  -51.1172   57.5011   60.7569 C   0  0  0  0  0  0  0  0  0  0  0  0
  7  8  2  0  0  0
  7  6  1  0  0  0
  7  9  1  0  0  0
  6  5  1  0  0  0
  9 10  1  0  0  0
  5  4  1  0  0  0
  4  3  1  0  0  0
  3  2  1  0  0  0
  2  1  1  0  0  0
  1 11  1  0  0  0
 11 12  1  0  0  0
 12 13  2  0  0  0
 13 14  1  0  0  0
 14 15  1  0  0  0
 15 16  1  0  0  0
 16 17  1  0  0  0
 17 18  1  0  0  0
 18 19  1  0  0  0
M  END
> <minimizedAffinity>
-6.81634

> <CNNscore>
0.5871492624

> <CNNaffinity>
5.8941402435

> <CNN_VS>
3.4607400894

> <CNNaffinity_variance>
0.2176020145

$$$$
