/media/chris/experiments/cd1a-new-docking/inputs/ligands/4x6d_2_ligand.pdb


 19 18  0  0  0  0  0  0  0  0999 V2000
  -45.8395   59.7187   66.1799 C   0  0  0  0  0  0  0  0  0  0  0  0
  -44.5150   59.9601   65.4691 C   0  0  0  0  0  0  0  0  0  0  0  0
  -43.9024   58.6789   64.9294 C   0  0  0  0  0  0  0  0  0  0  0  0
  -42.6749   58.3016   65.7422 C   0  0  0  0  0  0  0  0  0  0  0  0
  -42.1477   59.5405   66.4434 C   0  0  0  0  0  0  0  0  0  0  0  0
  -40.7772   59.9428   65.9220 C   0  0  0  0  0  0  0  0  0  0  0  0
  -40.8265   61.3772   65.4573 C   0  0  0  0  0  0  0  0  0  0  0  0
  -41.6451   61.7226   64.5831 O   0  0  0  0  0  0  0  0  0  0  0  0
  -40.0539   62.2376   65.9301 O   0  0  0  0  0  0  0  0  0  0  0  0
  -39.4315   61.9974   66.5882 H   0  0  0  0  0  0  0  0  0  0  0  0
  -46.9079   60.4838   65.4124 C   0  0  0  0  0  0  0  0  0  0  0  0
  -48.1353   60.7293   66.2568 C   0  0  0  0  0  0  0  0  0  0  0  0
  -49.4081   60.0851   65.8961 C   0  0  0  0  0  0  0  0  0  0  0  0
  -49.5164   59.3714   64.5720 C   0  0  0  0  0  0  0  0  0  0  0  0
  -50.1413   60.2795   63.5186 C   0  0  0  0  0  0  0  0  0  0  0  0
  -50.8370   59.4442   62.4440 C   0  0  0  0  0  0  0  0  0  0  0  0
  -50.1579   58.0888   62.2534 C   0  0  0  0  0  0  0  0  0  0  0  0
  -50.5267   57.4495   60.9123 C   0  0  0  0  0  0  0  0  0  0  0  0
  -50.1206   58.3044   59.7147 C   0  0  0  0  0  0  0  0  0  0  0  0
  7  8  2  0  0  0
  7  6  1  0  0  0
  7  9  1  0  0  0
  6  5  1  0  0  0
  9 10  1  0  0  0
  5  4  1  0  0  0
  4  3  1  0  0  0
  3  2  1  0  0  0
  2  1  1  0  0  0
  1 11  1  0  0  0
 11 12  1  0  0  0
 12 13  2  0  0  0
 13 14  1  0  0  0
 14 15  1  0  0  0
 15 16  1  0  0  0
 16 17  1  0  0  0
 17 18  1  0  0  0
 18 19  1  0  0  0
M  END
> <minimizedAffinity>
-6.74767

> <CNNscore>
0.8559654355

> <CNNaffinity>
6.3113884926

> <CNN_VS>
5.4023303986

> <CNNaffinity_variance>
0.5630599856

$$$$
/media/chris/experiments/cd1a-new-docking/inputs/ligands/4x6d_2_ligand.pdb


 19 18  0  0  0  0  0  0  0  0999 V2000
  -47.5954   60.9350   65.6348 C   0  0  0  0  0  0  0  0  0  0  0  0
  -46.9728   59.5484   65.5481 C   0  0  0  0  0  0  0  0  0  0  0  0
  -45.4804   59.5972   65.2683 C   0  0  0  0  0  0  0  0  0  0  0  0
  -44.7229   59.9816   66.5287 C   0  0  0  0  0  0  0  0  0  0  0  0
  -43.2422   59.7275   66.3111 C   0  0  0  0  0  0  0  0  0  0  0  0
  -42.3858   60.8192   66.9329 C   0  0  0  0  0  0  0  0  0  0  0  0
  -41.4419   61.3621   65.8889 C   0  0  0  0  0  0  0  0  0  0  0  0
  -41.2619   60.7382   64.8249 O   0  0  0  0  0  0  0  0  0  0  0  0
  -40.8247   62.4333   66.0687 O   0  0  0  0  0  0  0  0  0  0  0  0
  -40.9466   62.9168   66.8621 H   0  0  0  0  0  0  0  0  0  0  0  0
  -48.5686   61.0647   64.4721 C   0  0  0  0  0  0  0  0  0  0  0  0
  -49.9961   60.8404   64.9099 C   0  0  0  0  0  0  0  0  0  0  0  0
  -50.9245   60.1193   64.0248 C   0  0  0  0  0  0  0  0  0  0  0  0
  -50.4967   59.8119   62.6117 C   0  0  0  0  0  0  0  0  0  0  0  0
  -50.1209   58.3411   62.4691 C   0  0  0  0  0  0  0  0  0  0  0  0
  -49.2745   58.1296   61.2140 C   0  0  0  0  0  0  0  0  0  0  0  0
  -50.1315   58.1187   59.9491 C   0  0  0  0  0  0  0  0  0  0  0  0
  -49.3244   57.7026   58.7167 C   0  0  0  0  0  0  0  0  0  0  0  0
  -47.8945   58.2366   58.7346 C   0  0  0  0  0  0  0  0  0  0  0  0
  7  8  2  0  0  0
  7  6  1  0  0  0
  7  9  1  0  0  0
  6  5  1  0  0  0
  9 10  1  0  0  0
  5  4  1  0  0  0
  4  3  1  0  0  0
  3  2  1  0  0  0
  2  1  1  0  0  0
  1 11  1  0  0  0
 11 12  1  0  0  0
 12 13  2  0  0  0
 13 14  1  0  0  0
 14 15  1  0  0  0
 15 16  1  0  0  0
 16 17  1  0  0  0
 17 18  1  0  0  0
 18 19  1  0  0  0
M  END
> <minimizedAffinity>
-6.94924

> <CNNscore>
0.7941080928

> <CNNaffinity>
6.1882205009

> <CNN_VS>
4.9141159058

> <CNNaffinity_variance>
0.3881188035

$$$$
/media/chris/experiments/cd1a-new-docking/inputs/ligands/4x6d_2_ligand.pdb


 19 18  0  0  0  0  0  0  0  0999 V2000
  -46.6765   60.7108   65.4881 C   0  0  0  0  0  0  0  0  0  0  0  0
  -46.0432   59.6405   66.3664 C   0  0  0  0  0  0  0  0  0  0  0  0
  -44.5251   59.6915   66.3425 C   0  0  0  0  0  0  0  0  0  0  0  0
  -44.0473   60.5432   65.1778 C   0  0  0  0  0  0  0  0  0  0  0  0
  -42.8054   59.9080   64.5790 C   0  0  0  0  0  0  0  0  0  0  0  0
  -41.7186   60.9375   64.3126 C   0  0  0  0  0  0  0  0  0  0  0  0
  -40.8622   61.0829   65.5460 C   0  0  0  0  0  0  0  0  0  0  0  0
  -40.5690   60.0792   66.2245 O   0  0  0  0  0  0  0  0  0  0  0  0
  -40.4379   62.1996   65.9113 O   0  0  0  0  0  0  0  0  0  0  0  0
  -40.6475   62.9660   65.4145 H   0  0  0  0  0  0  0  0  0  0  0  0
  -48.1855   60.5472   65.5971 C   0  0  0  0  0  0  0  0  0  0  0  0
  -48.6014   59.1008   65.4765 C   0  0  0  0  0  0  0  0  0  0  0  0
  -49.7016   58.7324   64.5713 C   0  0  0  0  0  0  0  0  0  0  0  0
  -50.5342   59.8259   63.9505 C   0  0  0  0  0  0  0  0  0  0  0  0
  -50.7448   59.5656   62.4629 C   0  0  0  0  0  0  0  0  0  0  0  0
  -50.1499   58.2130   62.0721 C   0  0  0  0  0  0  0  0  0  0  0  0
  -50.9121   57.5736   60.9124 C   0  0  0  0  0  0  0  0  0  0  0  0
  -50.3299   57.9775   59.5555 C   0  0  0  0  0  0  0  0  0  0  0  0
  -48.8075   58.0875   59.5709 C   0  0  0  0  0  0  0  0  0  0  0  0
  7  8  2  0  0  0
  7  6  1  0  0  0
  7  9  1  0  0  0
  6  5  1  0  0  0
  9 10  1  0  0  0
  5  4  1  0  0  0
  4  3  1  0  0  0
  3  2  1  0  0  0
  2  1  1  0  0  0
  1 11  1  0  0  0
 11 12  1  0  0  0
 12 13  2  0  0  0
 13 14  1  0  0  0
 14 15  1  0  0  0
 15 16  1  0  0  0
 16 17  1  0  0  0
 17 18  1  0  0  0
 18 19  1  0  0  0
M  END
> <minimizedAffinity>
-6.92438

> <CNNscore>
0.7686054111

> <CNNaffinity>
6.2841124535

> <CNN_VS>
4.8300027847

> <CNNaffinity_variance>
0.4953937531

$$$$
/media/chris/experiments/cd1a-new-docking/inputs/ligands/4x6d_2_ligand.pdb


 19 18  0  0  0  0  0  0  0  0999 V2000
  -44.6657   59.1273   65.4029 C   0  0  0  0  0  0  0  0  0  0  0  0
  -44.0867   60.4659   64.9661 C   0  0  0  0  0  0  0  0  0  0  0  0
  -42.6766   60.3380   64.4152 C   0  0  0  0  0  0  0  0  0  0  0  0
  -41.6792   60.9624   65.3772 C   0  0  0  0  0  0  0  0  0  0  0  0
  -40.7948   59.8692   65.9491 C   0  0  0  0  0  0  0  0  0  0  0  0
  -40.6582   58.6962   64.9914 C   0  0  0  0  0  0  0  0  0  0  0  0
  -39.2356   58.6267   64.4944 C   0  0  0  0  0  0  0  0  0  0  0  0
  -38.9937   58.1888   63.3527 O   0  0  0  0  0  0  0  0  0  0  0  0
  -38.2812   58.9979   65.2099 O   0  0  0  0  0  0  0  0  0  0  0  0
  -38.4427   59.3301   66.0711 H   0  0  0  0  0  0  0  0  0  0  0  0
  -46.0177   59.4091   66.0420 C   0  0  0  0  0  0  0  0  0  0  0  0
  -46.7709   58.1353   66.3418 C   0  0  0  0  0  0  0  0  0  0  0  0
  -47.8120   57.6690   65.4123 C   0  0  0  0  0  0  0  0  0  0  0  0
  -48.2581   58.5814   64.2974 C   0  0  0  0  0  0  0  0  0  0  0  0
  -49.7278   58.9538   64.4597 C   0  0  0  0  0  0  0  0  0  0  0  0
  -50.3854   59.1252   63.0906 C   0  0  0  0  0  0  0  0  0  0  0  0
  -49.8253   58.1391   62.0666 C   0  0  0  0  0  0  0  0  0  0  0  0
  -50.8641   57.7668   61.0057 C   0  0  0  0  0  0  0  0  0  0  0  0
  -50.3065   57.8139   59.5855 C   0  0  0  0  0  0  0  0  0  0  0  0
  7  8  2  0  0  0
  7  6  1  0  0  0
  7  9  1  0  0  0
  6  5  1  0  0  0
  9 10  1  0  0  0
  5  4  1  0  0  0
  4  3  1  0  0  0
  3  2  1  0  0  0
  2  1  1  0  0  0
  1 11  1  0  0  0
 11 12  1  0  0  0
 12 13  2  0  0  0
 13 14  1  0  0  0
 14 15  1  0  0  0
 15 16  1  0  0  0
 16 17  1  0  0  0
 17 18  1  0  0  0
 18 19  1  0  0  0
M  END
> <minimizedAffinity>
-6.27463

> <CNNscore>
0.7257927656

> <CNNaffinity>
6.2827277184

> <CNN_VS>
4.5599584579

> <CNNaffinity_variance>
0.3713403344

$$$$
/media/chris/experiments/cd1a-new-docking/inputs/ligands/4x6d_2_ligand.pdb


 19 18  0  0  0  0  0  0  0  0999 V2000
  -44.9208   58.7810   66.1834 C   0  0  0  0  0  0  0  0  0  0  0  0
  -43.6571   59.6277   66.2456 C   0  0  0  0  0  0  0  0  0  0  0  0
  -42.7168   59.3558   65.0836 C   0  0  0  0  0  0  0  0  0  0  0  0
  -41.3494   58.9412   65.6016 C   0  0  0  0  0  0  0  0  0  0  0  0
  -40.2832   59.4776   64.6637 C   0  0  0  0  0  0  0  0  0  0  0  0
  -39.0163   59.8618   65.4115 C   0  0  0  0  0  0  0  0  0  0  0  0
  -39.0066   61.3538   65.6340 C   0  0  0  0  0  0  0  0  0  0  0  0
  -37.9261   61.9747   65.6570 O   0  0  0  0  0  0  0  0  0  0  0  0
  -40.0686   61.9899   65.8024 O   0  0  0  0  0  0  0  0  0  0  0  0
  -40.8910   61.5409   65.7885 H   0  0  0  0  0  0  0  0  0  0  0  0
  -46.0903   59.6925   66.5257 C   0  0  0  0  0  0  0  0  0  0  0  0
  -46.5891   60.4415   65.3133 C   0  0  0  0  0  0  0  0  0  0  0  0
  -48.0051   60.8332   65.2309 C   0  0  0  0  0  0  0  0  0  0  0  0
  -48.9740   60.2904   66.2512 C   0  0  0  0  0  0  0  0  0  0  0  0
  -50.1114   59.5381   65.5690 C   0  0  0  0  0  0  0  0  0  0  0  0
  -50.8247   60.4487   64.5698 C   0  0  0  0  0  0  0  0  0  0  0  0
  -50.9379   59.7978   63.1921 C   0  0  0  0  0  0  0  0  0  0  0  0
  -50.0895   58.5277   63.0898 C   0  0  0  0  0  0  0  0  0  0  0  0
  -49.3866   58.3896   61.7418 C   0  0  0  0  0  0  0  0  0  0  0  0
  7  8  2  0  0  0
  7  6  1  0  0  0
  7  9  1  0  0  0
  6  5  1  0  0  0
  9 10  1  0  0  0
  5  4  1  0  0  0
  4  3  1  0  0  0
  3  2  1  0  0  0
  2  1  1  0  0  0
  1 11  1  0  0  0
 11 12  1  0  0  0
 12 13  2  0  0  0
 13 14  1  0  0  0
 14 15  1  0  0  0
 15 16  1  0  0  0
 16 17  1  0  0  0
 17 18  1  0  0  0
 18 19  1  0  0  0
M  END
> <minimizedAffinity>
-6.60662

> <CNNscore>
0.7158579826

> <CNNaffinity>
6.0126180649

> <CNN_VS>
4.3041806221

> <CNNaffinity_variance>
0.2682526112

$$$$
/media/chris/experiments/cd1a-new-docking/inputs/ligands/4x6d_2_ligand.pdb


 19 18  0  0  0  0  0  0  0  0999 V2000
  -45.7142   58.2305   66.2598 C   0  0  0  0  0  0  0  0  0  0  0  0
  -44.8364   58.3513   65.0218 C   0  0  0  0  0  0  0  0  0  0  0  0
  -43.5586   57.5371   65.1330 C   0  0  0  0  0  0  0  0  0  0  0  0
  -42.6903   58.0750   66.2585 C   0  0  0  0  0  0  0  0  0  0  0  0
  -41.7355   59.1108   65.6930 C   0  0  0  0  0  0  0  0  0  0  0  0
  -41.8298   60.4316   66.4404 C   0  0  0  0  0  0  0  0  0  0  0  0
  -41.3006   61.5366   65.5603 C   0  0  0  0  0  0  0  0  0  0  0  0
  -41.6695   61.6198   64.3726 O   0  0  0  0  0  0  0  0  0  0  0  0
  -40.4876   62.3787   65.9971 O   0  0  0  0  0  0  0  0  0  0  0  0
  -40.1983   62.3329   66.8873 H   0  0  0  0  0  0  0  0  0  0  0  0
  -46.2089   59.6292   66.5987 C   0  0  0  0  0  0  0  0  0  0  0  0
  -46.3464   60.4881   65.3645 C   0  0  0  0  0  0  0  0  0  0  0  0
  -47.6503   61.0847   65.0341 C   0  0  0  0  0  0  0  0  0  0  0  0
  -48.8697   60.6506   65.8081 C   0  0  0  0  0  0  0  0  0  0  0  0
  -50.1149   60.7068   64.9299 C   0  0  0  0  0  0  0  0  0  0  0  0
  -49.7572   60.3752   63.4813 C   0  0  0  0  0  0  0  0  0  0  0  0
  -50.8719   59.5932   62.7882 C   0  0  0  0  0  0  0  0  0  0  0  0
  -50.3351   58.3576   62.0613 C   0  0  0  0  0  0  0  0  0  0  0  0
  -49.9342   58.6452   60.6168 C   0  0  0  0  0  0  0  0  0  0  0  0
  7  8  2  0  0  0
  7  6  1  0  0  0
  7  9  1  0  0  0
  6  5  1  0  0  0
  9 10  1  0  0  0
  5  4  1  0  0  0
  4  3  1  0  0  0
  3  2  1  0  0  0
  2  1  1  0  0  0
  1 11  1  0  0  0
 11 12  1  0  0  0
 12 13  2  0  0  0
 13 14  1  0  0  0
 14 15  1  0  0  0
 15 16  1  0  0  0
 16 17  1  0  0  0
 17 18  1  0  0  0
 18 19  1  0  0  0
M  END
> <minimizedAffinity>
-6.69888

> <CNNscore>
0.7108249068

> <CNNaffinity>
6.0624132156

> <CNN_VS>
4.3093142509

> <CNNaffinity_variance>
0.2439561337

$$$$
/media/chris/experiments/cd1a-new-docking/inputs/ligands/4x6d_2_ligand.pdb


 19 18  0  0  0  0  0  0  0  0999 V2000
  -48.0259   58.8751   64.6569 C   0  0  0  0  0  0  0  0  0  0  0  0
  -47.8920   59.4035   66.0784 C   0  0  0  0  0  0  0  0  0  0  0  0
  -46.5041   59.9491   66.3680 C   0  0  0  0  0  0  0  0  0  0  0  0
  -45.9801   60.7151   65.1644 C   0  0  0  0  0  0  0  0  0  0  0  0
  -44.4708   60.5649   65.1030 C   0  0  0  0  0  0  0  0  0  0  0  0
  -44.0558   59.1132   64.9236 C   0  0  0  0  0  0  0  0  0  0  0  0
  -43.0164   58.7644   65.9598 C   0  0  0  0  0  0  0  0  0  0  0  0
  -42.5832   59.6434   66.7302 O   0  0  0  0  0  0  0  0  0  0  0  0
  -42.5701   57.6022   66.0632 O   0  0  0  0  0  0  0  0  0  0  0  0
  -42.8834   56.9275   65.4932 H   0  0  0  0  0  0  0  0  0  0  0  0
  -49.4448   58.3465   64.5052 C   0  0  0  0  0  0  0  0  0  0  0  0
  -50.4337   59.4611   64.2609 C   0  0  0  0  0  0  0  0  0  0  0  0
  -50.8206   59.8023   62.8828 C   0  0  0  0  0  0  0  0  0  0  0  0
  -50.0608   59.1841   61.7362 C   0  0  0  0  0  0  0  0  0  0  0  0
  -50.7963   57.9617   61.1978 C   0  0  0  0  0  0  0  0  0  0  0  0
  -50.1998   57.5320   59.8577 C   0  0  0  0  0  0  0  0  0  0  0  0
  -48.9850   58.3791   59.4816 C   0  0  0  0  0  0  0  0  0  0  0  0
  -48.1989   57.7652   58.3203 C   0  0  0  0  0  0  0  0  0  0  0  0
  -46.7626   58.2758   58.2394 C   0  0  0  0  0  0  0  0  0  0  0  0
  7  8  2  0  0  0
  7  6  1  0  0  0
  7  9  1  0  0  0
  6  5  1  0  0  0
  9 10  1  0  0  0
  5  4  1  0  0  0
  4  3  1  0  0  0
  3  2  1  0  0  0
  2  1  1  0  0  0
  1 11  1  0  0  0
 11 12  1  0  0  0
 12 13  2  0  0  0
 13 14  1  0  0  0
 14 15  1  0  0  0
 15 16  1  0  0  0
 16 17  1  0  0  0
 17 18  1  0  0  0
 18 19  1  0  0  0
M  END
> <minimizedAffinity>
-6.81357

> <CNNscore>
0.6576510072

> <CNNaffinity>
6.3500638008

> <CNN_VS>
4.1761260033

> <CNNaffinity_variance>
0.3499413729

$$$$
/media/chris/experiments/cd1a-new-docking/inputs/ligands/4x6d_2_ligand.pdb


 19 18  0  0  0  0  0  0  0  0999 V2000
  -41.6113   58.0743   65.2796 C   0  0  0  0  0  0  0  0  0  0  0  0
  -40.7072   59.2314   65.6818 C   0  0  0  0  0  0  0  0  0  0  0  0
  -39.6266   59.5107   64.6511 C   0  0  0  0  0  0  0  0  0  0  0  0
  -38.9437   58.2156   64.2432 C   0  0  0  0  0  0  0  0  0  0  0  0
  -38.5629   58.2996   62.7761 C   0  0  0  0  0  0  0  0  0  0  0  0
  -37.3090   57.4950   62.4725 C   0  0  0  0  0  0  0  0  0  0  0  0
  -37.0299   57.5545   60.9912 C   0  0  0  0  0  0  0  0  0  0  0  0
  -36.4248   56.6194   60.4317 O   0  0  0  0  0  0  0  0  0  0  0  0
  -37.3911   58.5328   60.3033 O   0  0  0  0  0  0  0  0  0  0  0  0
  -37.8472   59.2457   60.7058 H   0  0  0  0  0  0  0  0  0  0  0  0
  -43.0105   58.4016   65.7806 C   0  0  0  0  0  0  0  0  0  0  0  0
  -44.0473   57.4786   65.1867 C   0  0  0  0  0  0  0  0  0  0  0  0
  -45.4491   57.9178   65.0998 C   0  0  0  0  0  0  0  0  0  0  0  0
  -45.8620   59.1870   65.8021 C   0  0  0  0  0  0  0  0  0  0  0  0
  -47.2852   59.5777   65.4188 C   0  0  0  0  0  0  0  0  0  0  0  0
  -47.3483   61.0616   65.0577 C   0  0  0  0  0  0  0  0  0  0  0  0
  -48.7709   61.4998   64.7130 C   0  0  0  0  0  0  0  0  0  0  0  0
  -49.8178   60.5412   65.2860 C   0  0  0  0  0  0  0  0  0  0  0  0
  -50.9304   60.2140   64.2934 C   0  0  0  0  0  0  0  0  0  0  0  0
  7  8  2  0  0  0
  7  6  1  0  0  0
  7  9  1  0  0  0
  6  5  1  0  0  0
  9 10  1  0  0  0
  5  4  1  0  0  0
  4  3  1  0  0  0
  3  2  1  0  0  0
  2  1  1  0  0  0
  1 11  1  0  0  0
 11 12  1  0  0  0
 12 13  2  0  0  0
 13 14  1  0  0  0
 14 15  1  0  0  0
 15 16  1  0  0  0
 16 17  1  0  0  0
 17 18  1  0  0  0
 18 19  1  0  0  0
M  END
> <minimizedAffinity>
-6.31819

> <CNNscore>
0.6552638412

> <CNNaffinity>
5.9048461914

> <CNN_VS>
3.8692321777

> <CNNaffinity_variance>
0.2635334134

$$$$
/media/chris/experiments/cd1a-new-docking/inputs/ligands/4x6d_2_ligand.pdb


 19 18  0  0  0  0  0  0  0  0999 V2000
  -42.6213   58.5366   66.1689 C   0  0  0  0  0  0  0  0  0  0  0  0
  -41.2910   59.2724   66.2509 C   0  0  0  0  0  0  0  0  0  0  0  0
  -40.6297   59.4320   64.8925 C   0  0  0  0  0  0  0  0  0  0  0  0
  -39.4388   58.4948   64.7758 C   0  0  0  0  0  0  0  0  0  0  0  0
  -38.1965   59.3117   64.4696 C   0  0  0  0  0  0  0  0  0  0  0  0
  -38.4995   60.8008   64.4191 C   0  0  0  0  0  0  0  0  0  0  0  0
  -37.7952   61.4878   65.5625 C   0  0  0  0  0  0  0  0  0  0  0  0
  -37.5717   60.8684   66.6208 O   0  0  0  0  0  0  0  0  0  0  0  0
  -37.4297   62.6793   65.4754 O   0  0  0  0  0  0  0  0  0  0  0  0
  -37.5887   63.1618   64.6879 H   0  0  0  0  0  0  0  0  0  0  0  0
  -43.3443   59.0508   64.9326 C   0  0  0  0  0  0  0  0  0  0  0  0
  -44.1525   60.2904   65.2323 C   0  0  0  0  0  0  0  0  0  0  0  0
  -45.6054   60.1805   65.4377 C   0  0  0  0  0  0  0  0  0  0  0  0
  -46.2901   58.8727   65.1294 C   0  0  0  0  0  0  0  0  0  0  0  0
  -47.5439   58.7057   65.9809 C   0  0  0  0  0  0  0  0  0  0  0  0
  -48.5780   57.8575   65.2409 C   0  0  0  0  0  0  0  0  0  0  0  0
  -49.8039   58.6788   64.8441 C   0  0  0  0  0  0  0  0  0  0  0  0
  -49.9304   58.8173   63.3249 C   0  0  0  0  0  0  0  0  0  0  0  0
  -51.0298   59.7901   62.9063 C   0  0  0  0  0  0  0  0  0  0  0  0
  7  8  2  0  0  0
  7  6  1  0  0  0
  7  9  1  0  0  0
  6  5  1  0  0  0
  9 10  1  0  0  0
  5  4  1  0  0  0
  4  3  1  0  0  0
  3  2  1  0  0  0
  2  1  1  0  0  0
  1 11  1  0  0  0
 11 12  1  0  0  0
 12 13  2  0  0  0
 13 14  1  0  0  0
 14 15  1  0  0  0
 15 16  1  0  0  0
 16 17  1  0  0  0
 17 18  1  0  0  0
 18 19  1  0  0  0
M  END
> <minimizedAffinity>
-6.31750

> <CNNscore>
0.6245424747

> <CNNaffinity>
5.9596648216

> <CNN_VS>
3.7220637798

> <CNNaffinity_variance>
0.2424206287

$$$$
