/media/chris/experiments/cd1a-new-docking/inputs/ligands/4x6d_2_ligand.pdb


 19 18  0  0  0  0  0  0  0  0999 V2000
  -45.6990   58.7229   65.2344 C   0  0  0  0  0  0  0  0  0  0  0  0
  -45.0891   60.0552   65.6473 C   0  0  0  0  0  0  0  0  0  0  0  0
  -43.5759   60.0693   65.5120 C   0  0  0  0  0  0  0  0  0  0  0  0
  -42.9297   60.2745   66.8723 C   0  0  0  0  0  0  0  0  0  0  0  0
  -41.5575   59.6251   66.8695 C   0  0  0  0  0  0  0  0  0  0  0  0
  -40.8143   59.8840   65.5687 C   0  0  0  0  0  0  0  0  0  0  0  0
  -39.8807   61.0539   65.7571 C   0  0  0  0  0  0  0  0  0  0  0  0
  -38.6473   60.8744   65.7602 O   0  0  0  0  0  0  0  0  0  0  0  0
  -40.3194   62.2127   65.9168 O   0  0  0  0  0  0  0  0  0  0  0  0
  -41.2433   62.3680   65.9176 H   0  0  0  0  0  0  0  0  0  0  0  0
  -47.1905   58.9527   65.0378 C   0  0  0  0  0  0  0  0  0  0  0  0
  -47.7090   60.0547   65.9302 C   0  0  0  0  0  0  0  0  0  0  0  0
  -49.1599   60.2379   66.0931 C   0  0  0  0  0  0  0  0  0  0  0  0
  -50.0986   59.4675   65.1989 C   0  0  0  0  0  0  0  0  0  0  0  0
  -50.9046   60.4154   64.3176 C   0  0  0  0  0  0  0  0  0  0  0  0
  -51.1425   59.7885   62.9439 C   0  0  0  0  0  0  0  0  0  0  0  0
  -50.2069   58.6071   62.6916 C   0  0  0  0  0  0  0  0  0  0  0  0
  -50.5670   57.8589   61.4055 C   0  0  0  0  0  0  0  0  0  0  0  0
  -49.9553   58.4919   60.1585 C   0  0  0  0  0  0  0  0  0  0  0  0
  7  8  2  0  0  0
  7  6  1  0  0  0
  7  9  1  0  0  0
  6  5  1  0  0  0
  9 10  1  0  0  0
  5  4  1  0  0  0
  4  3  1  0  0  0
  3  2  1  0  0  0
  2  1  1  0  0  0
  1 11  1  0  0  0
 11 12  1  0  0  0
 12 13  2  0  0  0
 13 14  1  0  0  0
 14 15  1  0  0  0
 15 16  1  0  0  0
 16 17  1  0  0  0
 17 18  1  0  0  0
 18 19  1  0  0  0
M  END
> <minimizedAffinity>
-6.79453

> <CNNscore>
0.8135706782

> <CNNaffinity>
6.1649637222

> <CNN_VS>
5.0156335831

> <CNNaffinity_variance>
0.3708495498

$$$$
/media/chris/experiments/cd1a-new-docking/inputs/ligands/4x6d_2_ligand.pdb


 19 18  0  0  0  0  0  0  0  0999 V2000
  -48.1704   58.7252   64.8970 C   0  0  0  0  0  0  0  0  0  0  0  0
  -47.7193   60.1749   64.7852 C   0  0  0  0  0  0  0  0  0  0  0  0
  -46.5282   60.4840   65.6761 C   0  0  0  0  0  0  0  0  0  0  0  0
  -45.7401   59.2151   65.9569 C   0  0  0  0  0  0  0  0  0  0  0  0
  -44.5088   59.1926   65.0693 C   0  0  0  0  0  0  0  0  0  0  0  0
  -43.6037   60.3858   65.3308 C   0  0  0  0  0  0  0  0  0  0  0  0
  -42.7381   60.0959   66.5319 C   0  0  0  0  0  0  0  0  0  0  0  0
  -42.0180   59.0787   66.5518 O   0  0  0  0  0  0  0  0  0  0  0  0
  -42.7288   60.8578   67.5219 O   0  0  0  0  0  0  0  0  0  0  0  0
  -43.2632   61.6274   67.5260 H   0  0  0  0  0  0  0  0  0  0  0  0
  -49.6306   58.6744   64.4713 C   0  0  0  0  0  0  0  0  0  0  0  0
  -49.9592   59.7558   63.4702 C   0  0  0  0  0  0  0  0  0  0  0  0
  -50.5773   59.3945   62.1846 C   0  0  0  0  0  0  0  0  0  0  0  0
  -50.6687   57.9389   61.8012 C   0  0  0  0  0  0  0  0  0  0  0  0
  -50.6289   57.7761   60.2856 C   0  0  0  0  0  0  0  0  0  0  0  0
  -49.4834   56.8480   59.8821 C   0  0  0  0  0  0  0  0  0  0  0  0
  -48.9074   57.2208   58.5168 C   0  0  0  0  0  0  0  0  0  0  0  0
  -47.9008   58.3697   58.6167 C   0  0  0  0  0  0  0  0  0  0  0  0
  -46.4682   57.8879   58.8299 C   0  0  0  0  0  0  0  0  0  0  0  0
  7  8  2  0  0  0
  7  6  1  0  0  0
  7  9  1  0  0  0
  6  5  1  0  0  0
  9 10  1  0  0  0
  5  4  1  0  0  0
  4  3  1  0  0  0
  3  2  1  0  0  0
  2  1  1  0  0  0
  1 11  1  0  0  0
 11 12  1  0  0  0
 12 13  2  0  0  0
 13 14  1  0  0  0
 14 15  1  0  0  0
 15 16  1  0  0  0
 16 17  1  0  0  0
 17 18  1  0  0  0
 18 19  1  0  0  0
M  END
> <minimizedAffinity>
-6.86406

> <CNNscore>
0.7407695055

> <CNNaffinity>
6.4403562546

> <CNN_VS>
4.7708196640

> <CNNaffinity_variance>
0.4880707264

$$$$
/media/chris/experiments/cd1a-new-docking/inputs/ligands/4x6d_2_ligand.pdb


 19 18  0  0  0  0  0  0  0  0999 V2000
  -48.1301   60.9986   65.6429 C   0  0  0  0  0  0  0  0  0  0  0  0
  -47.1152   59.8654   65.5833 C   0  0  0  0  0  0  0  0  0  0  0  0
  -45.7015   60.3629   65.3344 C   0  0  0  0  0  0  0  0  0  0  0  0
  -44.7773   59.8944   66.4463 C   0  0  0  0  0  0  0  0  0  0  0  0
  -43.3494   60.2679   66.0912 C   0  0  0  0  0  0  0  0  0  0  0  0
  -43.0995   60.1792   64.5941 C   0  0  0  0  0  0  0  0  0  0  0  0
  -42.1868   61.3058   64.1776 C   0  0  0  0  0  0  0  0  0  0  0  0
  -41.0588   61.4197   64.6958 O   0  0  0  0  0  0  0  0  0  0  0  0
  -42.5401   62.1409   63.3183 O   0  0  0  0  0  0  0  0  0  0  0  0
  -43.3841   62.0722   62.9173 H   0  0  0  0  0  0  0  0  0  0  0  0
  -48.8907   60.9911   64.3250 C   0  0  0  0  0  0  0  0  0  0  0  0
  -50.3577   60.6966   64.5276 C   0  0  0  0  0  0  0  0  0  0  0  0
  -51.0930   59.9267   63.5117 C   0  0  0  0  0  0  0  0  0  0  0  0
  -50.4263   59.6368   62.1904 C   0  0  0  0  0  0  0  0  0  0  0  0
  -50.0115   58.1720   62.1048 C   0  0  0  0  0  0  0  0  0  0  0  0
  -50.6705   57.5042   60.8980 C   0  0  0  0  0  0  0  0  0  0  0  0
  -50.3283   58.2259   59.5953 C   0  0  0  0  0  0  0  0  0  0  0  0
  -49.2365   57.4961   58.8087 C   0  0  0  0  0  0  0  0  0  0  0  0
  -47.8987   58.2308   58.8273 C   0  0  0  0  0  0  0  0  0  0  0  0
  7  8  2  0  0  0
  7  6  1  0  0  0
  7  9  1  0  0  0
  6  5  1  0  0  0
  9 10  1  0  0  0
  5  4  1  0  0  0
  4  3  1  0  0  0
  3  2  1  0  0  0
  2  1  1  0  0  0
  1 11  1  0  0  0
 11 12  1  0  0  0
 12 13  2  0  0  0
 13 14  1  0  0  0
 14 15  1  0  0  0
 15 16  1  0  0  0
 16 17  1  0  0  0
 17 18  1  0  0  0
 18 19  1  0  0  0
M  END
> <minimizedAffinity>
-6.86554

> <CNNscore>
0.7120442986

> <CNNaffinity>
6.0628318787

> <CNN_VS>
4.3170046806

> <CNNaffinity_variance>
0.2912285924

$$$$
/media/chris/experiments/cd1a-new-docking/inputs/ligands/4x6d_2_ligand.pdb


 19 18  0  0  0  0  0  0  0  0999 V2000
  -43.6793   60.1533   65.3056 C   0  0  0  0  0  0  0  0  0  0  0  0
  -43.2123   58.7463   64.9591 C   0  0  0  0  0  0  0  0  0  0  0  0
  -41.8769   58.4028   65.5969 C   0  0  0  0  0  0  0  0  0  0  0  0
  -41.1314   59.6737   65.9696 C   0  0  0  0  0  0  0  0  0  0  0  0
  -39.9692   59.8629   65.0115 C   0  0  0  0  0  0  0  0  0  0  0  0
  -39.3058   58.5402   64.6624 C   0  0  0  0  0  0  0  0  0  0  0  0
  -37.8502   58.5985   65.0545 C   0  0  0  0  0  0  0  0  0  0  0  0
  -37.1319   57.5863   64.9409 O   0  0  0  0  0  0  0  0  0  0  0  0
  -37.3417   59.6489   65.5003 O   0  0  0  0  0  0  0  0  0  0  0  0
  -37.8653   60.4204   65.5931 H   0  0  0  0  0  0  0  0  0  0  0  0
  -45.1762   60.0784   65.5689 C   0  0  0  0  0  0  0  0  0  0  0  0
  -45.5737   58.7484   66.1630 C   0  0  0  0  0  0  0  0  0  0  0  0
  -46.7778   58.0613   65.6698 C   0  0  0  0  0  0  0  0  0  0  0  0
  -47.7099   58.7970   64.7402 C   0  0  0  0  0  0  0  0  0  0  0  0
  -49.1643   58.5400   65.1191 C   0  0  0  0  0  0  0  0  0  0  0  0
  -50.0831   58.8551   63.9388 C   0  0  0  0  0  0  0  0  0  0  0  0
  -49.5677   58.2370   62.6399 C   0  0  0  0  0  0  0  0  0  0  0  0
  -50.4165   58.6508   61.4351 C   0  0  0  0  0  0  0  0  0  0  0  0
  -51.0152   57.4593   60.6924 C   0  0  0  0  0  0  0  0  0  0  0  0
  7  8  2  0  0  0
  7  6  1  0  0  0
  7  9  1  0  0  0
  6  5  1  0  0  0
  9 10  1  0  0  0
  5  4  1  0  0  0
  4  3  1  0  0  0
  3  2  1  0  0  0
  2  1  1  0  0  0
  1 11  1  0  0  0
 11 12  1  0  0  0
 12 13  2  0  0  0
 13 14  1  0  0  0
 14 15  1  0  0  0
 15 16  1  0  0  0
 16 17  1  0  0  0
 17 18  1  0  0  0
 18 19  1  0  0  0
M  END
> <minimizedAffinity>
-6.20488

> <CNNscore>
0.6863112450

> <CNNaffinity>
6.2214417458

> <CNN_VS>
4.2698454857

> <CNNaffinity_variance>
0.3444254100

$$$$
/media/chris/experiments/cd1a-new-docking/inputs/ligands/4x6d_2_ligand.pdb


 19 18  0  0  0  0  0  0  0  0999 V2000
  -41.7273   59.1145   66.6932 C   0  0  0  0  0  0  0  0  0  0  0  0
  -41.3852   58.9062   65.2244 C   0  0  0  0  0  0  0  0  0  0  0  0
  -39.8921   58.7509   64.9910 C   0  0  0  0  0  0  0  0  0  0  0  0
  -39.5214   59.2618   63.6084 C   0  0  0  0  0  0  0  0  0  0  0  0
  -38.5677   58.2763   62.9576 C   0  0  0  0  0  0  0  0  0  0  0  0
  -37.2774   58.1344   63.7491 C   0  0  0  0  0  0  0  0  0  0  0  0
  -36.4828   59.4115   63.6326 C   0  0  0  0  0  0  0  0  0  0  0  0
  -36.1854   59.8616   62.5089 O   0  0  0  0  0  0  0  0  0  0  0  0
  -36.1067   60.0346   64.6479 O   0  0  0  0  0  0  0  0  0  0  0  0
  -36.3204   59.7123   65.5014 H   0  0  0  0  0  0  0  0  0  0  0  0
  -42.7250   60.2613   66.7644 C   0  0  0  0  0  0  0  0  0  0  0  0
  -43.5168   60.3940   65.4857 C   0  0  0  0  0  0  0  0  0  0  0  0
  -44.9623   60.1186   65.4923 C   0  0  0  0  0  0  0  0  0  0  0  0
  -45.5826   59.4991   66.7194 C   0  0  0  0  0  0  0  0  0  0  0  0
  -47.1013   59.4534   66.5923 C   0  0  0  0  0  0  0  0  0  0  0  0
  -47.5028   59.0874   65.1636 C   0  0  0  0  0  0  0  0  0  0  0  0
  -48.8251   58.3227   65.1258 C   0  0  0  0  0  0  0  0  0  0  0  0
  -49.9518   59.1611   64.5168 C   0  0  0  0  0  0  0  0  0  0  0  0
  -50.5399   60.1700   65.4997 C   0  0  0  0  0  0  0  0  0  0  0  0
  7  8  2  0  0  0
  7  6  1  0  0  0
  7  9  1  0  0  0
  6  5  1  0  0  0
  9 10  1  0  0  0
  5  4  1  0  0  0
  4  3  1  0  0  0
  3  2  1  0  0  0
  2  1  1  0  0  0
  1 11  1  0  0  0
 11 12  1  0  0  0
 12 13  2  0  0  0
 13 14  1  0  0  0
 14 15  1  0  0  0
 15 16  1  0  0  0
 16 17  1  0  0  0
 17 18  1  0  0  0
 18 19  1  0  0  0
M  END
> <minimizedAffinity>
-6.19030

> <CNNscore>
0.6837970614

> <CNNaffinity>
6.0360918045

> <CNN_VS>
4.1274619102

> <CNNaffinity_variance>
0.1453405321

$$$$
/media/chris/experiments/cd1a-new-docking/inputs/ligands/4x6d_2_ligand.pdb


 19 18  0  0  0  0  0  0  0  0999 V2000
  -45.9379   60.2265   65.8204 C   0  0  0  0  0  0  0  0  0  0  0  0
  -45.4825   58.7742   65.8549 C   0  0  0  0  0  0  0  0  0  0  0  0
  -44.5085   58.4430   64.7369 C   0  0  0  0  0  0  0  0  0  0  0  0
  -43.3453   57.6287   65.2789 C   0  0  0  0  0  0  0  0  0  0  0  0
  -42.6569   58.4212   66.3755 C   0  0  0  0  0  0  0  0  0  0  0  0
  -41.7079   59.4638   65.8063 C   0  0  0  0  0  0  0  0  0  0  0  0
  -41.9134   60.7691   66.5339 C   0  0  0  0  0  0  0  0  0  0  0  0
  -41.3532   61.8057   66.1272 O   0  0  0  0  0  0  0  0  0  0  0  0
  -42.6370   60.8367   67.5501 O   0  0  0  0  0  0  0  0  0  0  0  0
  -43.0666   60.0685   67.8713 H   0  0  0  0  0  0  0  0  0  0  0  0
  -47.3292   60.2471   65.2043 C   0  0  0  0  0  0  0  0  0  0  0  0
  -48.2775   59.3260   65.9336 C   0  0  0  0  0  0  0  0  0  0  0  0
  -49.0404   58.3196   65.1782 C   0  0  0  0  0  0  0  0  0  0  0  0
  -49.0272   58.3724   63.6711 C   0  0  0  0  0  0  0  0  0  0  0  0
  -50.2848   59.0543   63.1436 C   0  0  0  0  0  0  0  0  0  0  0  0
  -50.4602   58.7631   61.6533 C   0  0  0  0  0  0  0  0  0  0  0  0
  -49.2644   58.0034   61.0808 C   0  0  0  0  0  0  0  0  0  0  0  0
  -49.1386   58.1948   59.5672 C   0  0  0  0  0  0  0  0  0  0  0  0
  -47.7022   58.0607   59.0686 C   0  0  0  0  0  0  0  0  0  0  0  0
  7  8  2  0  0  0
  7  6  1  0  0  0
  7  9  1  0  0  0
  6  5  1  0  0  0
  9 10  1  0  0  0
  5  4  1  0  0  0
  4  3  1  0  0  0
  3  2  1  0  0  0
  2  1  1  0  0  0
  1 11  1  0  0  0
 11 12  1  0  0  0
 12 13  2  0  0  0
 13 14  1  0  0  0
 14 15  1  0  0  0
 15 16  1  0  0  0
 16 17  1  0  0  0
 17 18  1  0  0  0
 18 19  1  0  0  0
M  END
> <minimizedAffinity>
-6.63311

> <CNNscore>
0.6544078588

> <CNNaffinity>
6.2079577446

> <CNN_VS>
4.0625362396

> <CNNaffinity_variance>
0.3100635707

$$$$
/media/chris/experiments/cd1a-new-docking/inputs/ligands/4x6d_2_ligand.pdb


 19 18  0  0  0  0  0  0  0  0999 V2000
  -49.9228   59.0781   64.9012 C   0  0  0  0  0  0  0  0  0  0  0  0
  -50.6778   60.1083   64.0728 C   0  0  0  0  0  0  0  0  0  0  0  0
  -50.9121   59.6478   62.6441 C   0  0  0  0  0  0  0  0  0  0  0  0
  -50.1892   58.3349   62.3912 C   0  0  0  0  0  0  0  0  0  0  0  0
  -50.7869   57.6713   61.1636 C   0  0  0  0  0  0  0  0  0  0  0  0
  -50.2766   58.3016   59.8776 C   0  0  0  0  0  0  0  0  0  0  0  0
  -49.3895   57.3140   59.1610 C   0  0  0  0  0  0  0  0  0  0  0  0
  -48.9846   57.5603   58.0082 O   0  0  0  0  0  0  0  0  0  0  0  0
  -49.0502   56.2392   59.7000 O   0  0  0  0  0  0  0  0  0  0  0  0
  -49.3443   56.0360   60.5660 H   0  0  0  0  0  0  0  0  0  0  0  0
  -49.2303   59.8282   66.0297 C   0  0  0  0  0  0  0  0  0  0  0  0
  -48.5102   61.0560   65.5259 C   0  0  0  0  0  0  0  0  0  0  0  0
  -47.1075   60.9514   65.0937 C   0  0  0  0  0  0  0  0  0  0  0  0
  -46.3518   59.6753   65.3671 C   0  0  0  0  0  0  0  0  0  0  0  0
  -45.5453   59.7908   66.6559 C   0  0  0  0  0  0  0  0  0  0  0  0
  -44.0482   59.7584   66.3490 C   0  0  0  0  0  0  0  0  0  0  0  0
  -43.7761   59.8548   64.8485 C   0  0  0  0  0  0  0  0  0  0  0  0
  -42.3515   60.3329   64.5566 C   0  0  0  0  0  0  0  0  0  0  0  0
  -42.3122   61.5997   63.7061 C   0  0  0  0  0  0  0  0  0  0  0  0
  7  8  2  0  0  0
  7  6  1  0  0  0
  7  9  1  0  0  0
  6  5  1  0  0  0
  9 10  1  0  0  0
  5  4  1  0  0  0
  4  3  1  0  0  0
  3  2  1  0  0  0
  2  1  1  0  0  0
  1 11  1  0  0  0
 11 12  1  0  0  0
 12 13  2  0  0  0
 13 14  1  0  0  0
 14 15  1  0  0  0
 15 16  1  0  0  0
 16 17  1  0  0  0
 17 18  1  0  0  0
 18 19  1  0  0  0
M  END
> <minimizedAffinity>
-6.83676

> <CNNscore>
0.6275169849

> <CNNaffinity>
6.1945223808

> <CNN_VS>
3.8871679306

> <CNNaffinity_variance>
0.4006577134

$$$$
/media/chris/experiments/cd1a-new-docking/inputs/ligands/4x6d_2_ligand.pdb


 19 18  0  0  0  0  0  0  0  0999 V2000
  -42.9046   60.3905   67.0325 C   0  0  0  0  0  0  0  0  0  0  0  0
  -41.7926   59.4141   66.6749 C   0  0  0  0  0  0  0  0  0  0  0  0
  -41.5992   59.2765   65.1744 C   0  0  0  0  0  0  0  0  0  0  0  0
  -40.3861   58.4098   64.8793 C   0  0  0  0  0  0  0  0  0  0  0  0
  -39.3083   59.2696   64.2438 C   0  0  0  0  0  0  0  0  0  0  0  0
  -38.2899   59.7446   65.2678 C   0  0  0  0  0  0  0  0  0  0  0  0
  -38.3134   61.2519   65.3260 C   0  0  0  0  0  0  0  0  0  0  0  0
  -39.2448   61.8398   65.9094 O   0  0  0  0  0  0  0  0  0  0  0  0
  -37.4129   61.9342   64.7929 O   0  0  0  0  0  0  0  0  0  0  0  0
  -36.7043   61.5107   64.3497 H   0  0  0  0  0  0  0  0  0  0  0  0
  -44.0587   60.1277   66.0760 C   0  0  0  0  0  0  0  0  0  0  0  0
  -45.2694   59.5844   66.7964 C   0  0  0  0  0  0  0  0  0  0  0  0
  -46.6170   59.9061   66.3005 C   0  0  0  0  0  0  0  0  0  0  0  0
  -46.7687   60.9464   65.2192 C   0  0  0  0  0  0  0  0  0  0  0  0
  -48.2369   61.3042   65.0164 C   0  0  0  0  0  0  0  0  0  0  0  0
  -49.1209   60.4511   65.9259 C   0  0  0  0  0  0  0  0  0  0  0  0
  -50.3145   59.8688   65.1703 C   0  0  0  0  0  0  0  0  0  0  0  0
  -50.1449   59.9920   63.6540 C   0  0  0  0  0  0  0  0  0  0  0  0
  -50.2230   58.6472   62.9360 C   0  0  0  0  0  0  0  0  0  0  0  0
  7  8  2  0  0  0
  7  6  1  0  0  0
  7  9  1  0  0  0
  6  5  1  0  0  0
  9 10  1  0  0  0
  5  4  1  0  0  0
  4  3  1  0  0  0
  3  2  1  0  0  0
  2  1  1  0  0  0
  1 11  1  0  0  0
 11 12  1  0  0  0
 12 13  2  0  0  0
 13 14  1  0  0  0
 14 15  1  0  0  0
 15 16  1  0  0  0
 16 17  1  0  0  0
 17 18  1  0  0  0
 18 19  1  0  0  0
M  END
> <minimizedAffinity>
-6.37604

> <CNNscore>
0.6089460850

> <CNNaffinity>
5.8498697281

> <CNN_VS>
3.5622553825

> <CNNaffinity_variance>
0.2009133846

$$$$
/media/chris/experiments/cd1a-new-docking/inputs/ligands/4x6d_2_ligand.pdb


 19 18  0  0  0  0  0  0  0  0999 V2000
  -42.3994   58.0983   65.4889 C   0  0  0  0  0  0  0  0  0  0  0  0
  -41.4133   59.0640   66.1313 C   0  0  0  0  0  0  0  0  0  0  0  0
  -40.4629   59.6831   65.1207 C   0  0  0  0  0  0  0  0  0  0  0  0
  -39.7453   58.5942   64.3401 C   0  0  0  0  0  0  0  0  0  0  0  0
  -39.0380   59.2226   63.1530 C   0  0  0  0  0  0  0  0  0  0  0  0
  -39.7637   60.4631   62.6568 C   0  0  0  0  0  0  0  0  0  0  0  0
  -39.0955   60.9563   61.3975 C   0  0  0  0  0  0  0  0  0  0  0  0
  -39.7411   61.0243   60.3335 O   0  0  0  0  0  0  0  0  0  0  0  0
  -37.8939   61.2984   61.3938 O   0  0  0  0  0  0  0  0  0  0  0  0
  -37.3918   61.2545   62.1836 H   0  0  0  0  0  0  0  0  0  0  0  0
  -43.5664   58.9259   64.9703 C   0  0  0  0  0  0  0  0  0  0  0  0
  -44.1108   59.8517   66.0315 C   0  0  0  0  0  0  0  0  0  0  0  0
  -45.4727   59.6452   66.5491 C   0  0  0  0  0  0  0  0  0  0  0  0
  -46.3750   58.6545   65.8572 C   0  0  0  0  0  0  0  0  0  0  0  0
  -47.4668   59.3743   65.0732 C   0  0  0  0  0  0  0  0  0  0  0  0
  -48.2610   58.3757   64.2315 C   0  0  0  0  0  0  0  0  0  0  0  0
  -49.5400   58.9978   63.6730 C   0  0  0  0  0  0  0  0  0  0  0  0
  -49.7280   60.4404   64.1495 C   0  0  0  0  0  0  0  0  0  0  0  0
  -50.9968   60.6328   64.9759 C   0  0  0  0  0  0  0  0  0  0  0  0
  7  8  2  0  0  0
  7  6  1  0  0  0
  7  9  1  0  0  0
  6  5  1  0  0  0
  9 10  1  0  0  0
  5  4  1  0  0  0
  4  3  1  0  0  0
  3  2  1  0  0  0
  2  1  1  0  0  0
  1 11  1  0  0  0
 11 12  1  0  0  0
 12 13  2  0  0  0
 13 14  1  0  0  0
 14 15  1  0  0  0
 15 16  1  0  0  0
 16 17  1  0  0  0
 17 18  1  0  0  0
 18 19  1  0  0  0
M  END
> <minimizedAffinity>
-6.43663

> <CNNscore>
0.5941368937

> <CNNaffinity>
5.9777164459

> <CNN_VS>
3.5515818596

> <CNNaffinity_variance>
0.2635869384

$$$$
