/media/chris/experiments/cd1a-new-docking/inputs/ligands/4x6d_2_ligand.pdb


 19 18  0  0  0  0  0  0  0  0999 V2000
  -46.6589   60.9332   65.2689 C   0  0  0  0  0  0  0  0  0  0  0  0
  -46.1874   59.5007   65.4774 C   0  0  0  0  0  0  0  0  0  0  0  0
  -44.9523   59.4170   66.3582 C   0  0  0  0  0  0  0  0  0  0  0  0
  -43.8294   60.2537   65.7674 C   0  0  0  0  0  0  0  0  0  0  0  0
  -42.7887   60.5116   66.8419 C   0  0  0  0  0  0  0  0  0  0  0  0
  -41.3921   60.1311   66.3766 C   0  0  0  0  0  0  0  0  0  0  0  0
  -40.8023   61.2775   65.5934 C   0  0  0  0  0  0  0  0  0  0  0  0
  -40.1044   61.0518   64.5856 O   0  0  0  0  0  0  0  0  0  0  0  0
  -40.9950   62.4631   65.9371 O   0  0  0  0  0  0  0  0  0  0  0  0
  -41.5167   62.6532   66.6919 H   0  0  0  0  0  0  0  0  0  0  0  0
  -48.1753   60.9308   65.3963 C   0  0  0  0  0  0  0  0  0  0  0  0
  -48.7165   59.5374   65.6088 C   0  0  0  0  0  0  0  0  0  0  0  0
  -49.9275   59.1091   64.8908 C   0  0  0  0  0  0  0  0  0  0  0  0
  -50.7270   60.1362   64.1291 C   0  0  0  0  0  0  0  0  0  0  0  0
  -50.8510   59.7436   62.6610 C   0  0  0  0  0  0  0  0  0  0  0  0
  -50.2996   58.3351   62.4407 C   0  0  0  0  0  0  0  0  0  0  0  0
  -50.8396   57.7109   61.1549 C   0  0  0  0  0  0  0  0  0  0  0  0
  -49.7155   57.1724   60.2663 C   0  0  0  0  0  0  0  0  0  0  0  0
  -48.9992   58.2698   59.4835 C   0  0  0  0  0  0  0  0  0  0  0  0
  7  8  2  0  0  0
  7  6  1  0  0  0
  7  9  1  0  0  0
  6  5  1  0  0  0
  9 10  1  0  0  0
  5  4  1  0  0  0
  4  3  1  0  0  0
  3  2  1  0  0  0
  2  1  1  0  0  0
  1 11  1  0  0  0
 11 12  1  0  0  0
 12 13  2  0  0  0
 13 14  1  0  0  0
 14 15  1  0  0  0
 15 16  1  0  0  0
 16 17  1  0  0  0
 17 18  1  0  0  0
 18 19  1  0  0  0
M  END
> <minimizedAffinity>
-6.80222

> <CNNscore>
0.8269569874

> <CNNaffinity>
6.2691507339

> <CNN_VS>
5.1843180656

> <CNNaffinity_variance>
0.4464742243

$$$$
/media/chris/experiments/cd1a-new-docking/inputs/ligands/4x6d_2_ligand.pdb


 19 18  0  0  0  0  0  0  0  0999 V2000
  -45.1368   59.7444   65.7149 C   0  0  0  0  0  0  0  0  0  0  0  0
  -44.5806   58.6927   64.7648 C   0  0  0  0  0  0  0  0  0  0  0  0
  -43.0917   58.4614   64.9601 C   0  0  0  0  0  0  0  0  0  0  0  0
  -42.7540   58.4425   66.4418 C   0  0  0  0  0  0  0  0  0  0  0  0
  -41.5145   59.2869   66.6759 C   0  0  0  0  0  0  0  0  0  0  0  0
  -41.7873   60.7647   66.4444 C   0  0  0  0  0  0  0  0  0  0  0  0
  -40.6626   61.3534   65.6294 C   0  0  0  0  0  0  0  0  0  0  0  0
  -40.2749   60.7790   64.5934 O   0  0  0  0  0  0  0  0  0  0  0  0
  -40.0999   62.4142   65.9743 O   0  0  0  0  0  0  0  0  0  0  0  0
  -40.3770   62.8608   66.7500 H   0  0  0  0  0  0  0  0  0  0  0  0
  -46.6535   59.6976   65.5996 C   0  0  0  0  0  0  0  0  0  0  0  0
  -47.2212   61.0221   65.1488 C   0  0  0  0  0  0  0  0  0  0  0  0
  -48.6198   61.0994   64.6981 C   0  0  0  0  0  0  0  0  0  0  0  0
  -49.3912   59.8207   64.4869 C   0  0  0  0  0  0  0  0  0  0  0  0
  -50.8266   60.1190   64.0682 C   0  0  0  0  0  0  0  0  0  0  0  0
  -51.0626   59.6690   62.6266 C   0  0  0  0  0  0  0  0  0  0  0  0
  -50.3696   58.3404   62.3281 C   0  0  0  0  0  0  0  0  0  0  0  0
  -50.9210   57.6813   61.0613 C   0  0  0  0  0  0  0  0  0  0  0  0
  -49.8623   56.8973   60.2901 C   0  0  0  0  0  0  0  0  0  0  0  0
  7  8  2  0  0  0
  7  6  1  0  0  0
  7  9  1  0  0  0
  6  5  1  0  0  0
  9 10  1  0  0  0
  5  4  1  0  0  0
  4  3  1  0  0  0
  3  2  1  0  0  0
  2  1  1  0  0  0
  1 11  1  0  0  0
 11 12  1  0  0  0
 12 13  2  0  0  0
 13 14  1  0  0  0
 14 15  1  0  0  0
 15 16  1  0  0  0
 16 17  1  0  0  0
 17 18  1  0  0  0
 18 19  1  0  0  0
M  END
> <minimizedAffinity>
-6.70953

> <CNNscore>
0.7798088789

> <CNNaffinity>
6.2129421234

> <CNN_VS>
4.8449072838

> <CNNaffinity_variance>
0.3028264642

$$$$
/media/chris/experiments/cd1a-new-docking/inputs/ligands/4x6d_2_ligand.pdb


 19 18  0  0  0  0  0  0  0  0999 V2000
  -47.9183   59.2523   65.9333 C   0  0  0  0  0  0  0  0  0  0  0  0
  -47.4444   57.8614   65.5352 C   0  0  0  0  0  0  0  0  0  0  0  0
  -46.1384   57.4765   66.2093 C   0  0  0  0  0  0  0  0  0  0  0  0
  -45.0163   57.4216   65.1856 C   0  0  0  0  0  0  0  0  0  0  0  0
  -43.8259   58.1997   65.7165 C   0  0  0  0  0  0  0  0  0  0  0  0
  -44.2377   59.5595   66.2579 C   0  0  0  0  0  0  0  0  0  0  0  0
  -43.0026   60.3937   66.4908 C   0  0  0  0  0  0  0  0  0  0  0  0
  -42.2477   60.6713   65.5386 O   0  0  0  0  0  0  0  0  0  0  0  0
  -42.7116   60.8151   67.6305 O   0  0  0  0  0  0  0  0  0  0  0  0
  -43.2664   60.6170   68.3590 H   0  0  0  0  0  0  0  0  0  0  0  0
  -48.2092   60.0136   64.6482 C   0  0  0  0  0  0  0  0  0  0  0  0
  -49.6926   60.1709   64.4149 C   0  0  0  0  0  0  0  0  0  0  0  0
  -50.3657   59.3284   63.4137 C   0  0  0  0  0  0  0  0  0  0  0  0
  -49.5277   58.4823   62.4883 C   0  0  0  0  0  0  0  0  0  0  0  0
  -50.4024   57.7913   61.4480 C   0  0  0  0  0  0  0  0  0  0  0  0
  -49.5338   57.1587   60.3609 C   0  0  0  0  0  0  0  0  0  0  0  0
  -48.8394   58.2168   59.5047 C   0  0  0  0  0  0  0  0  0  0  0  0
  -47.4241   57.7901   59.1073 C   0  0  0  0  0  0  0  0  0  0  0  0
  -46.8869   58.5604   57.9039 C   0  0  0  0  0  0  0  0  0  0  0  0
  7  8  2  0  0  0
  7  6  1  0  0  0
  7  9  1  0  0  0
  6  5  1  0  0  0
  9 10  1  0  0  0
  5  4  1  0  0  0
  4  3  1  0  0  0
  3  2  1  0  0  0
  2  1  1  0  0  0
  1 11  1  0  0  0
 11 12  1  0  0  0
 12 13  2  0  0  0
 13 14  1  0  0  0
 14 15  1  0  0  0
 15 16  1  0  0  0
 16 17  1  0  0  0
 17 18  1  0  0  0
 18 19  1  0  0  0
M  END
> <minimizedAffinity>
-6.82972

> <CNNscore>
0.7755654454

> <CNNaffinity>
6.4668540955

> <CNN_VS>
5.0154685974

> <CNNaffinity_variance>
0.6442469954

$$$$
/media/chris/experiments/cd1a-new-docking/inputs/ligands/4x6d_2_ligand.pdb


 19 18  0  0  0  0  0  0  0  0999 V2000
  -48.9898   59.7092   65.9803 C   0  0  0  0  0  0  0  0  0  0  0  0
  -48.2282   60.7896   65.2250 C   0  0  0  0  0  0  0  0  0  0  0  0
  -46.7278   60.7093   65.4502 C   0  0  0  0  0  0  0  0  0  0  0  0
  -46.4209   59.7745   66.6086 C   0  0  0  0  0  0  0  0  0  0  0  0
  -45.0376   59.1815   66.4106 C   0  0  0  0  0  0  0  0  0  0  0  0
  -44.0711   60.1926   65.8145 C   0  0  0  0  0  0  0  0  0  0  0  0
  -42.7876   60.1766   66.6069 C   0  0  0  0  0  0  0  0  0  0  0  0
  -41.8804   59.3748   66.3104 O   0  0  0  0  0  0  0  0  0  0  0  0
  -42.6109   60.9544   67.5685 O   0  0  0  0  0  0  0  0  0  0  0  0
  -43.2810   61.5644   67.8070 H   0  0  0  0  0  0  0  0  0  0  0  0
  -49.9232   59.0368   64.9841 C   0  0  0  0  0  0  0  0  0  0  0  0
  -50.6225   60.0451   64.1043 C   0  0  0  0  0  0  0  0  0  0  0  0
  -50.8336   59.7457   62.6792 C   0  0  0  0  0  0  0  0  0  0  0  0
  -50.1565   58.5397   62.0777 C   0  0  0  0  0  0  0  0  0  0  0  0
  -49.9289   58.7377   60.5832 C   0  0  0  0  0  0  0  0  0  0  0  0
  -49.3043   57.4837   59.9715 C   0  0  0  0  0  0  0  0  0  0  0  0
  -47.8054   57.6578   59.7316 C   0  0  0  0  0  0  0  0  0  0  0  0
  -47.4404   57.4864   58.2549 C   0  0  0  0  0  0  0  0  0  0  0  0
  -46.6858   58.6853   57.6862 C   0  0  0  0  0  0  0  0  0  0  0  0
  7  8  2  0  0  0
  7  6  1  0  0  0
  7  9  1  0  0  0
  6  5  1  0  0  0
  9 10  1  0  0  0
  5  4  1  0  0  0
  4  3  1  0  0  0
  3  2  1  0  0  0
  2  1  1  0  0  0
  1 11  1  0  0  0
 11 12  1  0  0  0
 12 13  2  0  0  0
 13 14  1  0  0  0
 14 15  1  0  0  0
 15 16  1  0  0  0
 16 17  1  0  0  0
 17 18  1  0  0  0
 18 19  1  0  0  0
M  END
> <minimizedAffinity>
-7.15571

> <CNNscore>
0.7657700777

> <CNNaffinity>
6.4364686012

> <CNN_VS>
4.9288549423

> <CNNaffinity_variance>
0.5469152331

$$$$
/media/chris/experiments/cd1a-new-docking/inputs/ligands/4x6d_2_ligand.pdb


 19 18  0  0  0  0  0  0  0  0999 V2000
  -42.5388   57.8216   65.5891 C   0  0  0  0  0  0  0  0  0  0  0  0
  -41.4019   58.7889   65.8882 C   0  0  0  0  0  0  0  0  0  0  0  0
  -40.7944   59.3805   64.6275 C   0  0  0  0  0  0  0  0  0  0  0  0
  -39.5625   58.5899   64.2183 C   0  0  0  0  0  0  0  0  0  0  0  0
  -38.4358   58.8952   65.1885 C   0  0  0  0  0  0  0  0  0  0  0  0
  -37.6378   60.1161   64.7593 C   0  0  0  0  0  0  0  0  0  0  0  0
  -37.8082   61.2053   65.7889 C   0  0  0  0  0  0  0  0  0  0  0  0
  -37.0535   61.2517   66.7798 O   0  0  0  0  0  0  0  0  0  0  0  0
  -38.7018   62.0709   65.6736 O   0  0  0  0  0  0  0  0  0  0  0  0
  -39.2790   62.0529   64.9358 H   0  0  0  0  0  0  0  0  0  0  0  0
  -43.6827   58.6383   65.0058 C   0  0  0  0  0  0  0  0  0  0  0  0
  -44.2684   59.5871   66.0239 C   0  0  0  0  0  0  0  0  0  0  0  0
  -45.6271   59.3548   66.5388 C   0  0  0  0  0  0  0  0  0  0  0  0
  -46.4885   58.3060   65.8810 C   0  0  0  0  0  0  0  0  0  0  0  0
  -47.4202   58.9393   64.8536 C   0  0  0  0  0  0  0  0  0  0  0  0
  -48.7634   58.2098   64.8355 C   0  0  0  0  0  0  0  0  0  0  0  0
  -49.5692   58.5392   63.5798 C   0  0  0  0  0  0  0  0  0  0  0  0
  -49.9957   60.0090   63.5450 C   0  0  0  0  0  0  0  0  0  0  0  0
  -50.9343   60.3828   64.6892 C   0  0  0  0  0  0  0  0  0  0  0  0
  7  8  2  0  0  0
  7  6  1  0  0  0
  7  9  1  0  0  0
  6  5  1  0  0  0
  9 10  1  0  0  0
  5  4  1  0  0  0
  4  3  1  0  0  0
  3  2  1  0  0  0
  2  1  1  0  0  0
  1 11  1  0  0  0
 11 12  1  0  0  0
 12 13  2  0  0  0
 13 14  1  0  0  0
 14 15  1  0  0  0
 15 16  1  0  0  0
 16 17  1  0  0  0
 17 18  1  0  0  0
 18 19  1  0  0  0
M  END
> <minimizedAffinity>
-6.27200

> <CNNscore>
0.6825534701

> <CNNaffinity>
6.0125012398

> <CNN_VS>
4.1038537025

> <CNNaffinity_variance>
0.1786683500

$$$$
/media/chris/experiments/cd1a-new-docking/inputs/ligands/4x6d_2_ligand.pdb


 19 18  0  0  0  0  0  0  0  0999 V2000
  -44.5447   60.0648   65.5024 C   0  0  0  0  0  0  0  0  0  0  0  0
  -43.8625   58.7214   65.7210 C   0  0  0  0  0  0  0  0  0  0  0  0
  -42.5575   58.8496   66.4884 C   0  0  0  0  0  0  0  0  0  0  0  0
  -41.3904   58.9669   65.5220 C   0  0  0  0  0  0  0  0  0  0  0  0
  -40.5684   60.1896   65.8875 C   0  0  0  0  0  0  0  0  0  0  0  0
  -39.5983   60.5682   64.7796 C   0  0  0  0  0  0  0  0  0  0  0  0
  -38.3348   61.1166   65.3948 C   0  0  0  0  0  0  0  0  0  0  0  0
  -37.3468   60.3746   65.5587 O   0  0  0  0  0  0  0  0  0  0  0  0
  -38.2548   62.3110   65.7527 O   0  0  0  0  0  0  0  0  0  0  0  0
  -38.9867   62.8846   65.6378 H   0  0  0  0  0  0  0  0  0  0  0  0
  -46.0345   59.7936   65.3521 C   0  0  0  0  0  0  0  0  0  0  0  0
  -46.8019   61.0522   65.0251 C   0  0  0  0  0  0  0  0  0  0  0  0
  -48.1962   61.1924   65.4741 C   0  0  0  0  0  0  0  0  0  0  0  0
  -48.8998   59.9931   66.0583 C   0  0  0  0  0  0  0  0  0  0  0  0
  -50.4040   60.0835   65.8259 C   0  0  0  0  0  0  0  0  0  0  0  0
  -50.6942   60.4583   64.3726 C   0  0  0  0  0  0  0  0  0  0  0  0
  -50.5549   59.2562   63.4398 C   0  0  0  0  0  0  0  0  0  0  0  0
  -50.1672   59.6776   62.0202 C   0  0  0  0  0  0  0  0  0  0  0  0
  -49.8310   58.4922   61.1192 C   0  0  0  0  0  0  0  0  0  0  0  0
  7  8  2  0  0  0
  7  6  1  0  0  0
  7  9  1  0  0  0
  6  5  1  0  0  0
  9 10  1  0  0  0
  5  4  1  0  0  0
  4  3  1  0  0  0
  3  2  1  0  0  0
  2  1  1  0  0  0
  1 11  1  0  0  0
 11 12  1  0  0  0
 12 13  2  0  0  0
 13 14  1  0  0  0
 14 15  1  0  0  0
 15 16  1  0  0  0
 16 17  1  0  0  0
 17 18  1  0  0  0
 18 19  1  0  0  0
M  END
> <minimizedAffinity>
-6.28845

> <CNNscore>
0.6589214206

> <CNNaffinity>
5.9617371559

> <CNN_VS>
3.9283163548

> <CNNaffinity_variance>
0.2424107343

$$$$
/media/chris/experiments/cd1a-new-docking/inputs/ligands/4x6d_2_ligand.pdb


 19 18  0  0  0  0  0  0  0  0999 V2000
  -41.1352   59.6924   65.8035 C   0  0  0  0  0  0  0  0  0  0  0  0
  -40.3967   58.6602   64.9627 C   0  0  0  0  0  0  0  0  0  0  0  0
  -39.0741   59.1833   64.4286 C   0  0  0  0  0  0  0  0  0  0  0  0
  -38.1140   58.0303   64.1857 C   0  0  0  0  0  0  0  0  0  0  0  0
  -38.0652   57.7343   62.6976 C   0  0  0  0  0  0  0  0  0  0  0  0
  -38.1329   59.0063   61.8675 C   0  0  0  0  0  0  0  0  0  0  0  0
  -37.4193   58.7806   60.5577 C   0  0  0  0  0  0  0  0  0  0  0  0
  -36.4008   58.0633   60.5169 O   0  0  0  0  0  0  0  0  0  0  0  0
  -37.8270   59.3053   59.4997 O   0  0  0  0  0  0  0  0  0  0  0  0
  -38.5909   59.8478   59.5099 H   0  0  0  0  0  0  0  0  0  0  0  0
  -42.3167   58.9840   66.4501 C   0  0  0  0  0  0  0  0  0  0  0  0
  -43.1485   58.2410   65.4324 C   0  0  0  0  0  0  0  0  0  0  0  0
  -44.4194   58.8197   64.9682 C   0  0  0  0  0  0  0  0  0  0  0  0
  -44.9726   60.0308   65.6764 C   0  0  0  0  0  0  0  0  0  0  0  0
  -46.4714   60.1629   65.4294 C   0  0  0  0  0  0  0  0  0  0  0  0
  -47.1315   58.7842   65.4258 C   0  0  0  0  0  0  0  0  0  0  0  0
  -48.3243   58.7306   64.4724 C   0  0  0  0  0  0  0  0  0  0  0  0
  -49.6405   58.4968   65.2181 C   0  0  0  0  0  0  0  0  0  0  0  0
  -50.3389   59.7955   65.6127 C   0  0  0  0  0  0  0  0  0  0  0  0
  7  8  2  0  0  0
  7  6  1  0  0  0
  7  9  1  0  0  0
  6  5  1  0  0  0
  9 10  1  0  0  0
  5  4  1  0  0  0
  4  3  1  0  0  0
  3  2  1  0  0  0
  2  1  1  0  0  0
  1 11  1  0  0  0
 11 12  1  0  0  0
 12 13  2  0  0  0
 13 14  1  0  0  0
 14 15  1  0  0  0
 15 16  1  0  0  0
 16 17  1  0  0  0
 17 18  1  0  0  0
 18 19  1  0  0  0
M  END
> <minimizedAffinity>
-6.30155

> <CNNscore>
0.6517096758

> <CNNaffinity>
6.0394964218

> <CNN_VS>
3.9359982014

> <CNNaffinity_variance>
0.3263575435

$$$$
/media/chris/experiments/cd1a-new-docking/inputs/ligands/4x6d_2_ligand.pdb


 19 18  0  0  0  0  0  0  0  0999 V2000
  -38.1977   58.1336   62.2724 C   0  0  0  0  0  0  0  0  0  0  0  0
  -38.1955   58.5739   63.7297 C   0  0  0  0  0  0  0  0  0  0  0  0
  -39.3687   58.0067   64.5108 C   0  0  0  0  0  0  0  0  0  0  0  0
  -40.4797   59.0389   64.6114 C   0  0  0  0  0  0  0  0  0  0  0  0
  -40.6935   59.3925   66.0721 C   0  0  0  0  0  0  0  0  0  0  0  0
  -41.7440   60.4786   66.2410 C   0  0  0  0  0  0  0  0  0  0  0  0
  -41.2831   61.7271   65.5308 C   0  0  0  0  0  0  0  0  0  0  0  0
  -41.8611   62.1048   64.4930 O   0  0  0  0  0  0  0  0  0  0  0  0
  -40.3208   62.3983   65.9603 O   0  0  0  0  0  0  0  0  0  0  0  0
  -39.8734   62.1307   66.7389 H   0  0  0  0  0  0  0  0  0  0  0  0
  -36.7468   58.0794   61.8165 C   0  0  0  0  0  0  0  0  0  0  0  0
  -36.4286   56.7800   61.1166 C   0  0  0  0  0  0  0  0  0  0  0  0
  -36.0220   56.7952   59.7025 C   0  0  0  0  0  0  0  0  0  0  0  0
  -36.1427   58.0795   58.9211 C   0  0  0  0  0  0  0  0  0  0  0  0
  -35.2105   58.0671   57.7146 C   0  0  0  0  0  0  0  0  0  0  0  0
  -34.5382   56.7011   57.5784 C   0  0  0  0  0  0  0  0  0  0  0  0
  -33.0148   56.8144   57.6134 C   0  0  0  0  0  0  0  0  0  0  0  0
  -32.3983   55.8918   58.6678 C   0  0  0  0  0  0  0  0  0  0  0  0
  -32.1677   56.5891   60.0059 C   0  0  0  0  0  0  0  0  0  0  0  0
  7  8  2  0  0  0
  7  6  1  0  0  0
  7  9  1  0  0  0
  6  5  1  0  0  0
  9 10  1  0  0  0
  5  4  1  0  0  0
  4  3  1  0  0  0
  3  2  1  0  0  0
  2  1  1  0  0  0
  1 11  1  0  0  0
 11 12  1  0  0  0
 12 13  2  0  0  0
 13 14  1  0  0  0
 14 15  1  0  0  0
 15 16  1  0  0  0
 16 17  1  0  0  0
 17 18  1  0  0  0
 18 19  1  0  0  0
M  END
> <minimizedAffinity>
-6.27202

> <CNNscore>
0.6352603436

> <CNNaffinity>
5.3518352509

> <CNN_VS>
3.3998086452

> <CNNaffinity_variance>
0.0346859843

$$$$
/media/chris/experiments/cd1a-new-docking/inputs/ligands/4x6d_2_ligand.pdb


 19 18  0  0  0  0  0  0  0  0999 V2000
  -50.6033   59.4540   62.0457 C   0  0  0  0  0  0  0  0  0  0  0  0
  -50.3783   57.9524   61.9345 C   0  0  0  0  0  0  0  0  0  0  0  0
  -50.5348   57.4444   60.5113 C   0  0  0  0  0  0  0  0  0  0  0  0
  -49.9902   58.4665   59.5270 C   0  0  0  0  0  0  0  0  0  0  0  0
  -48.5683   58.0856   59.1566 C   0  0  0  0  0  0  0  0  0  0  0  0
  -48.4916   57.4800   57.7641 C   0  0  0  0  0  0  0  0  0  0  0  0
  -47.9827   56.0638   57.8681 C   0  0  0  0  0  0  0  0  0  0  0  0
  -47.7854   55.5516   58.9872 O   0  0  0  0  0  0  0  0  0  0  0  0
  -47.7468   55.3841   56.8466 O   0  0  0  0  0  0  0  0  0  0  0  0
  -47.8887   55.7514   55.9964 H   0  0  0  0  0  0  0  0  0  0  0  0
  -49.7914   59.9436   63.2361 C   0  0  0  0  0  0  0  0  0  0  0  0
  -50.4244   59.5437   64.5472 C   0  0  0  0  0  0  0  0  0  0  0  0
  -49.6668   58.7160   65.4991 C   0  0  0  0  0  0  0  0  0  0  0  0
  -48.3625   58.1017   65.0564 C   0  0  0  0  0  0  0  0  0  0  0  0
  -47.2504   58.4222   66.0489 C   0  0  0  0  0  0  0  0  0  0  0  0
  -45.9492   58.7269   65.3068 C   0  0  0  0  0  0  0  0  0  0  0  0
  -45.4689   60.1534   65.5695 C   0  0  0  0  0  0  0  0  0  0  0  0
  -43.9525   60.2171   65.7690 C   0  0  0  0  0  0  0  0  0  0  0  0
  -43.1729   59.9891   64.4767 C   0  0  0  0  0  0  0  0  0  0  0  0
  7  8  2  0  0  0
  7  6  1  0  0  0
  7  9  1  0  0  0
  6  5  1  0  0  0
  9 10  1  0  0  0
  5  4  1  0  0  0
  4  3  1  0  0  0
  3  2  1  0  0  0
  2  1  1  0  0  0
  1 11  1  0  0  0
 11 12  1  0  0  0
 12 13  2  0  0  0
 13 14  1  0  0  0
 14 15  1  0  0  0
 15 16  1  0  0  0
 16 17  1  0  0  0
 17 18  1  0  0  0
 18 19  1  0  0  0
M  END
> <minimizedAffinity>
-7.03394

> <CNNscore>
0.6291221976

> <CNNaffinity>
6.3370399475

> <CNN_VS>
3.9867725372

> <CNNaffinity_variance>
0.5375916362

$$$$
