/media/chris/experiments/cd1a-new-docking/inputs/ligands/4x6d_2_ligand.pdb


 19 18  0  0  0  0  0  0  0  0999 V2000
  -48.1374   58.4130   65.1966 C   0  0  0  0  0  0  0  0  0  0  0  0
  -47.9589   59.4879   66.2599 C   0  0  0  0  0  0  0  0  0  0  0  0
  -46.4996   59.7218   66.6114 C   0  0  0  0  0  0  0  0  0  0  0  0
  -45.7634   60.3194   65.4235 C   0  0  0  0  0  0  0  0  0  0  0  0
  -44.4908   59.5276   65.1827 C   0  0  0  0  0  0  0  0  0  0  0  0
  -43.2509   60.3951   65.3302 C   0  0  0  0  0  0  0  0  0  0  0  0
  -42.5922   60.0952   66.6538 C   0  0  0  0  0  0  0  0  0  0  0  0
  -41.9710   59.0265   66.8142 O   0  0  0  0  0  0  0  0  0  0  0  0
  -42.6587   60.9001   67.6069 O   0  0  0  0  0  0  0  0  0  0  0  0
  -43.1211   61.7087   67.5060 H   0  0  0  0  0  0  0  0  0  0  0  0
  -49.5890   58.4659   64.7427 C   0  0  0  0  0  0  0  0  0  0  0  0
  -49.8250   59.5809   63.7524 C   0  0  0  0  0  0  0  0  0  0  0  0
  -50.2004   59.2571   62.3669 C   0  0  0  0  0  0  0  0  0  0  0  0
  -50.1279   57.8229   61.9065 C   0  0  0  0  0  0  0  0  0  0  0  0
  -50.8085   57.6553   60.5525 C   0  0  0  0  0  0  0  0  0  0  0  0
  -50.0339   58.4107   59.4728 C   0  0  0  0  0  0  0  0  0  0  0  0
  -49.0290   57.5066   58.7603 C   0  0  0  0  0  0  0  0  0  0  0  0
  -47.5841   57.9284   59.0396 C   0  0  0  0  0  0  0  0  0  0  0  0
  -46.9016   58.5516   57.8247 C   0  0  0  0  0  0  0  0  0  0  0  0
  7  8  2  0  0  0
  7  6  1  0  0  0
  7  9  1  0  0  0
  6  5  1  0  0  0
  9 10  1  0  0  0
  5  4  1  0  0  0
  4  3  1  0  0  0
  3  2  1  0  0  0
  2  1  1  0  0  0
  1 11  1  0  0  0
 11 12  1  0  0  0
 12 13  2  0  0  0
 13 14  1  0  0  0
 14 15  1  0  0  0
 15 16  1  0  0  0
 16 17  1  0  0  0
 17 18  1  0  0  0
 18 19  1  0  0  0
M  END
> <minimizedAffinity>
-7.16551

> <CNNscore>
0.7508918643

> <CNNaffinity>
6.3925404549

> <CNN_VS>
4.8001065254

> <CNNaffinity_variance>
0.5188061595

$$$$
/media/chris/experiments/cd1a-new-docking/inputs/ligands/4x6d_2_ligand.pdb


 19 18  0  0  0  0  0  0  0  0999 V2000
  -45.7844   58.3887   64.7213 C   0  0  0  0  0  0  0  0  0  0  0  0
  -44.7814   57.6570   65.6026 C   0  0  0  0  0  0  0  0  0  0  0  0
  -43.4330   58.3551   65.6527 C   0  0  0  0  0  0  0  0  0  0  0  0
  -43.5217   59.7156   64.9809 C   0  0  0  0  0  0  0  0  0  0  0  0
  -42.1341   60.1340   64.5292 C   0  0  0  0  0  0  0  0  0  0  0  0
  -41.1354   60.1037   65.6753 C   0  0  0  0  0  0  0  0  0  0  0  0
  -40.4308   61.4353   65.7525 C   0  0  0  0  0  0  0  0  0  0  0  0
  -39.1852   61.4834   65.7589 O   0  0  0  0  0  0  0  0  0  0  0  0
  -41.0734   62.5048   65.8156 O   0  0  0  0  0  0  0  0  0  0  0  0
  -42.0102   62.4895   65.8120 H   0  0  0  0  0  0  0  0  0  0  0  0
  -47.0391   58.6078   65.5541 C   0  0  0  0  0  0  0  0  0  0  0  0
  -46.9597   59.8819   66.3604 C   0  0  0  0  0  0  0  0  0  0  0  0
  -47.8863   60.9873   66.0688 C   0  0  0  0  0  0  0  0  0  0  0  0
  -48.7467   60.9125   64.8325 C   0  0  0  0  0  0  0  0  0  0  0  0
  -50.1800   60.5388   65.1939 C   0  0  0  0  0  0  0  0  0  0  0  0
  -50.9500   60.1189   63.9421 C   0  0  0  0  0  0  0  0  0  0  0  0
  -50.3318   58.8858   63.2847 C   0  0  0  0  0  0  0  0  0  0  0  0
  -50.1669   59.0671   61.7736 C   0  0  0  0  0  0  0  0  0  0  0  0
  -49.1800   58.0772   61.1605 C   0  0  0  0  0  0  0  0  0  0  0  0
  7  8  2  0  0  0
  7  6  1  0  0  0
  7  9  1  0  0  0
  6  5  1  0  0  0
  9 10  1  0  0  0
  5  4  1  0  0  0
  4  3  1  0  0  0
  3  2  1  0  0  0
  2  1  1  0  0  0
  1 11  1  0  0  0
 11 12  1  0  0  0
 12 13  2  0  0  0
 13 14  1  0  0  0
 14 15  1  0  0  0
 15 16  1  0  0  0
 16 17  1  0  0  0
 17 18  1  0  0  0
 18 19  1  0  0  0
M  END
> <minimizedAffinity>
-6.42706

> <CNNscore>
0.7100584507

> <CNNaffinity>
6.1309742928

> <CNN_VS>
4.3533501625

> <CNNaffinity_variance>
0.3271590173

$$$$
/media/chris/experiments/cd1a-new-docking/inputs/ligands/4x6d_2_ligand.pdb


 19 18  0  0  0  0  0  0  0  0999 V2000
  -43.1144   59.8770   64.6867 C   0  0  0  0  0  0  0  0  0  0  0  0
  -42.4576   60.9674   63.8515 C   0  0  0  0  0  0  0  0  0  0  0  0
  -40.9475   60.8164   63.7814 C   0  0  0  0  0  0  0  0  0  0  0  0
  -40.4774   59.7766   64.7854 C   0  0  0  0  0  0  0  0  0  0  0  0
  -39.5922   60.4520   65.8172 C   0  0  0  0  0  0  0  0  0  0  0  0
  -38.1164   60.2417   65.5178 C   0  0  0  0  0  0  0  0  0  0  0  0
  -37.5306   61.5280   64.9906 C   0  0  0  0  0  0  0  0  0  0  0  0
  -37.3780   62.5030   65.7521 O   0  0  0  0  0  0  0  0  0  0  0  0
  -37.1945   61.6431   63.7929 O   0  0  0  0  0  0  0  0  0  0  0  0
  -37.3014   60.9215   63.2048 H   0  0  0  0  0  0  0  0  0  0  0  0
  -44.4161   60.4488   65.2295 C   0  0  0  0  0  0  0  0  0  0  0  0
  -45.0979   59.4883   66.1741 C   0  0  0  0  0  0  0  0  0  0  0  0
  -46.5647   59.5005   66.2919 C   0  0  0  0  0  0  0  0  0  0  0  0
  -47.3410   60.6144   65.6356 C   0  0  0  0  0  0  0  0  0  0  0  0
  -48.7347   60.7319   66.2428 C   0  0  0  0  0  0  0  0  0  0  0  0
  -49.6681   59.6860   65.6335 C   0  0  0  0  0  0  0  0  0  0  0  0
  -50.7961   60.3332   64.8314 C   0  0  0  0  0  0  0  0  0  0  0  0
  -50.7978   59.8691   63.3726 C   0  0  0  0  0  0  0  0  0  0  0  0
  -49.8848   58.6702   63.1292 C   0  0  0  0  0  0  0  0  0  0  0  0
  7  8  2  0  0  0
  7  6  1  0  0  0
  7  9  1  0  0  0
  6  5  1  0  0  0
  9 10  1  0  0  0
  5  4  1  0  0  0
  4  3  1  0  0  0
  3  2  1  0  0  0
  2  1  1  0  0  0
  1 11  1  0  0  0
 11 12  1  0  0  0
 12 13  2  0  0  0
 13 14  1  0  0  0
 14 15  1  0  0  0
 15 16  1  0  0  0
 16 17  1  0  0  0
 17 18  1  0  0  0
 18 19  1  0  0  0
M  END
> <minimizedAffinity>
-6.16500

> <CNNscore>
0.6776790023

> <CNNaffinity>
5.9534368515

> <CNN_VS>
4.0345191956

> <CNNaffinity_variance>
0.3163309693

$$$$
/media/chris/experiments/cd1a-new-docking/inputs/ligands/4x6d_2_ligand.pdb


 19 18  0  0  0  0  0  0  0  0999 V2000
  -46.5794   58.4938   65.0683 C   0  0  0  0  0  0  0  0  0  0  0  0
  -46.4247   59.8696   65.7017 C   0  0  0  0  0  0  0  0  0  0  0  0
  -45.2310   60.6321   65.1524 C   0  0  0  0  0  0  0  0  0  0  0  0
  -43.9420   60.0839   65.7423 C   0  0  0  0  0  0  0  0  0  0  0  0
  -42.9407   59.8656   64.6225 C   0  0  0  0  0  0  0  0  0  0  0  0
  -42.1887   61.1426   64.2821 C   0  0  0  0  0  0  0  0  0  0  0  0
  -41.1158   61.3753   65.3167 C   0  0  0  0  0  0  0  0  0  0  0  0
  -40.3409   60.4511   65.6316 O   0  0  0  0  0  0  0  0  0  0  0  0
  -40.9861   62.4848   65.8762 O   0  0  0  0  0  0  0  0  0  0  0  0
  -41.5588   63.1919   65.6531 H   0  0  0  0  0  0  0  0  0  0  0  0
  -47.9561   58.4485   64.4215 C   0  0  0  0  0  0  0  0  0  0  0  0
  -49.0594   58.4812   65.4517 C   0  0  0  0  0  0  0  0  0  0  0  0
  -50.2411   59.3288   65.2267 C   0  0  0  0  0  0  0  0  0  0  0  0
  -50.2279   60.3119   64.0832 C   0  0  0  0  0  0  0  0  0  0  0  0
  -51.1404   59.8413   62.9560 C   0  0  0  0  0  0  0  0  0  0  0  0
  -50.3122   59.2494   61.8157 C   0  0  0  0  0  0  0  0  0  0  0  0
  -50.8186   57.8670   61.4071 C   0  0  0  0  0  0  0  0  0  0  0  0
  -50.1228   57.3550   60.1433 C   0  0  0  0  0  0  0  0  0  0  0  0
  -49.0603   58.3173   59.6187 C   0  0  0  0  0  0  0  0  0  0  0  0
  7  8  2  0  0  0
  7  6  1  0  0  0
  7  9  1  0  0  0
  6  5  1  0  0  0
  9 10  1  0  0  0
  5  4  1  0  0  0
  4  3  1  0  0  0
  3  2  1  0  0  0
  2  1  1  0  0  0
  1 11  1  0  0  0
 11 12  1  0  0  0
 12 13  2  0  0  0
 13 14  1  0  0  0
 14 15  1  0  0  0
 15 16  1  0  0  0
 16 17  1  0  0  0
 17 18  1  0  0  0
 18 19  1  0  0  0
M  END
> <minimizedAffinity>
-6.63532

> <CNNscore>
0.6652570367

> <CNNaffinity>
6.1785588264

> <CNN_VS>
4.1103296280

> <CNNaffinity_variance>
0.3734739423

$$$$
/media/chris/experiments/cd1a-new-docking/inputs/ligands/4x6d_2_ligand.pdb


 19 18  0  0  0  0  0  0  0  0999 V2000
  -49.9032   60.0623   64.7860 C   0  0  0  0  0  0  0  0  0  0  0  0
  -49.7668   58.7563   65.5567 C   0  0  0  0  0  0  0  0  0  0  0  0
  -48.5969   57.9156   65.0743 C   0  0  0  0  0  0  0  0  0  0  0  0
  -47.3581   58.2173   65.9017 C   0  0  0  0  0  0  0  0  0  0  0  0
  -46.1842   58.4455   64.9668 C   0  0  0  0  0  0  0  0  0  0  0  0
  -44.9129   58.7817   65.7302 C   0  0  0  0  0  0  0  0  0  0  0  0
  -43.8714   57.7285   65.4443 C   0  0  0  0  0  0  0  0  0  0  0  0
  -42.7095   57.8664   65.8741 O   0  0  0  0  0  0  0  0  0  0  0  0
  -44.1472   56.7106   64.7746 O   0  0  0  0  0  0  0  0  0  0  0  0
  -45.0149   56.5890   64.4427 H   0  0  0  0  0  0  0  0  0  0  0  0
  -49.6066   59.7556   63.3253 C   0  0  0  0  0  0  0  0  0  0  0  0
  -50.8479   59.3259   62.5808 C   0  0  0  0  0  0  0  0  0  0  0  0
  -50.7426   58.3282   61.5042 C   0  0  0  0  0  0  0  0  0  0  0  0
  -49.3748   57.9189   61.0187 C   0  0  0  0  0  0  0  0  0  0  0  0
  -49.4436   57.3971   59.5877 C   0  0  0  0  0  0  0  0  0  0  0  0
  -48.5147   56.1953   59.4165 C   0  0  0  0  0  0  0  0  0  0  0  0
  -47.4092   56.4751   58.3995 C   0  0  0  0  0  0  0  0  0  0  0  0
  -46.6248   57.7438   58.7440 C   0  0  0  0  0  0  0  0  0  0  0  0
  -46.5620   58.7364   57.5861 C   0  0  0  0  0  0  0  0  0  0  0  0
  7  8  2  0  0  0
  7  6  1  0  0  0
  7  9  1  0  0  0
  6  5  1  0  0  0
  9 10  1  0  0  0
  5  4  1  0  0  0
  4  3  1  0  0  0
  3  2  1  0  0  0
  2  1  1  0  0  0
  1 11  1  0  0  0
 11 12  1  0  0  0
 12 13  2  0  0  0
 13 14  1  0  0  0
 14 15  1  0  0  0
 15 16  1  0  0  0
 16 17  1  0  0  0
 17 18  1  0  0  0
 18 19  1  0  0  0
M  END
> <minimizedAffinity>
-6.95124

> <CNNscore>
0.6506141424

> <CNNaffinity>
6.4120163918

> <CNN_VS>
4.1717486382

> <CNNaffinity_variance>
0.5700365305

$$$$
/media/chris/experiments/cd1a-new-docking/inputs/ligands/4x6d_2_ligand.pdb


 19 18  0  0  0  0  0  0  0  0999 V2000
  -41.6208   59.0635   66.2583 C   0  0  0  0  0  0  0  0  0  0  0  0
  -40.6803   58.6388   65.1390 C   0  0  0  0  0  0  0  0  0  0  0  0
  -39.3239   59.3171   65.2301 C   0  0  0  0  0  0  0  0  0  0  0  0
  -38.2478   58.4185   64.6430 C   0  0  0  0  0  0  0  0  0  0  0  0
  -38.6699   57.9894   63.2494 C   0  0  0  0  0  0  0  0  0  0  0  0
  -38.3417   59.0493   62.2098 C   0  0  0  0  0  0  0  0  0  0  0  0
  -37.5487   58.4175   61.0928 C   0  0  0  0  0  0  0  0  0  0  0  0
  -36.8478   57.4113   61.3161 O   0  0  0  0  0  0  0  0  0  0  0  0
  -37.5740   58.8870   59.9353 O   0  0  0  0  0  0  0  0  0  0  0  0
  -38.0948   59.6429   59.7475 H   0  0  0  0  0  0  0  0  0  0  0  0
  -43.0176   58.5982   65.8730 C   0  0  0  0  0  0  0  0  0  0  0  0
  -43.7416   59.6304   65.0423 C   0  0  0  0  0  0  0  0  0  0  0  0
  -45.0342   60.1608   65.5042 C   0  0  0  0  0  0  0  0  0  0  0  0
  -45.7140   59.5065   66.6806 C   0  0  0  0  0  0  0  0  0  0  0  0
  -47.2207   59.4303   66.4597 C   0  0  0  0  0  0  0  0  0  0  0  0
  -47.5250   58.8760   65.0681 C   0  0  0  0  0  0  0  0  0  0  0  0
  -49.0240   58.8817   64.7723 C   0  0  0  0  0  0  0  0  0  0  0  0
  -49.3258   58.4139   63.3462 C   0  0  0  0  0  0  0  0  0  0  0  0
  -50.4983   59.1580   62.7123 C   0  0  0  0  0  0  0  0  0  0  0  0
  7  8  2  0  0  0
  7  6  1  0  0  0
  7  9  1  0  0  0
  6  5  1  0  0  0
  9 10  1  0  0  0
  5  4  1  0  0  0
  4  3  1  0  0  0
  3  2  1  0  0  0
  2  1  1  0  0  0
  1 11  1  0  0  0
 11 12  1  0  0  0
 12 13  2  0  0  0
 13 14  1  0  0  0
 14 15  1  0  0  0
 15 16  1  0  0  0
 16 17  1  0  0  0
 17 18  1  0  0  0
 18 19  1  0  0  0
M  END
> <minimizedAffinity>
-6.25945

> <CNNscore>
0.6331307292

> <CNNaffinity>
6.0263624191

> <CNN_VS>
3.8154752254

> <CNNaffinity_variance>
0.4158953726

$$$$
/media/chris/experiments/cd1a-new-docking/inputs/ligands/4x6d_2_ligand.pdb


 19 18  0  0  0  0  0  0  0  0999 V2000
  -47.5550   58.6884   64.5517 C   0  0  0  0  0  0  0  0  0  0  0  0
  -48.9409   58.2364   64.9908 C   0  0  0  0  0  0  0  0  0  0  0  0
  -50.0383   59.1663   64.5019 C   0  0  0  0  0  0  0  0  0  0  0  0
  -49.7455   59.6218   63.0817 C   0  0  0  0  0  0  0  0  0  0  0  0
  -50.2961   58.5932   62.1105 C   0  0  0  0  0  0  0  0  0  0  0  0
  -49.9443   58.9327   60.6707 C   0  0  0  0  0  0  0  0  0  0  0  0
  -50.0448   57.6845   59.8296 C   0  0  0  0  0  0  0  0  0  0  0  0
  -50.2806   56.5856   60.3686 O   0  0  0  0  0  0  0  0  0  0  0  0
  -49.8910   57.7250   58.5905 O   0  0  0  0  0  0  0  0  0  0  0  0
  -49.7131   58.5415   58.1668 H   0  0  0  0  0  0  0  0  0  0  0  0
  -46.6963   58.7876   65.8041 C   0  0  0  0  0  0  0  0  0  0  0  0
  -45.7756   59.9833   65.7577 C   0  0  0  0  0  0  0  0  0  0  0  0
  -44.4331   59.8464   65.1706 C   0  0  0  0  0  0  0  0  0  0  0  0
  -43.9225   58.4694   64.8280 C   0  0  0  0  0  0  0  0  0  0  0  0
  -43.0284   57.9329   65.9404 C   0  0  0  0  0  0  0  0  0  0  0  0
  -41.8804   58.9046   66.2128 C   0  0  0  0  0  0  0  0  0  0  0  0
  -40.8086   58.8329   65.1261 C   0  0  0  0  0  0  0  0  0  0  0  0
  -40.3863   60.2247   64.6486 C   0  0  0  0  0  0  0  0  0  0  0  0
  -41.2469   60.7456   63.5006 C   0  0  0  0  0  0  0  0  0  0  0  0
  7  8  2  0  0  0
  7  6  1  0  0  0
  7  9  1  0  0  0
  6  5  1  0  0  0
  9 10  1  0  0  0
  5  4  1  0  0  0
  4  3  1  0  0  0
  3  2  1  0  0  0
  2  1  1  0  0  0
  1 11  1  0  0  0
 11 12  1  0  0  0
 12 13  2  0  0  0
 13 14  1  0  0  0
 14 15  1  0  0  0
 15 16  1  0  0  0
 16 17  1  0  0  0
 17 18  1  0  0  0
 18 19  1  0  0  0
M  END
> <minimizedAffinity>
-6.31440

> <CNNscore>
0.6139298081

> <CNNaffinity>
6.1226768494

> <CNN_VS>
3.7588937283

> <CNNaffinity_variance>
0.6195337772

$$$$
/media/chris/experiments/cd1a-new-docking/inputs/ligands/4x6d_2_ligand.pdb


 19 18  0  0  0  0  0  0  0  0999 V2000
  -38.4109   57.9414   63.1987 C   0  0  0  0  0  0  0  0  0  0  0  0
  -38.3223   58.9369   62.0502 C   0  0  0  0  0  0  0  0  0  0  0  0
  -37.3299   58.5073   60.9831 C   0  0  0  0  0  0  0  0  0  0  0  0
  -36.8443   57.0934   61.2574 C   0  0  0  0  0  0  0  0  0  0  0  0
  -35.4908   56.9001   60.5979 C   0  0  0  0  0  0  0  0  0  0  0  0
  -35.5030   55.7390   59.6162 C   0  0  0  0  0  0  0  0  0  0  0  0
  -35.6267   56.2791   58.2131 C   0  0  0  0  0  0  0  0  0  0  0  0
  -36.0454   55.5457   57.2963 O   0  0  0  0  0  0  0  0  0  0  0  0
  -35.3113   57.4574   57.9430 O   0  0  0  0  0  0  0  0  0  0  0  0
  -34.9944   58.0242   58.6185 H   0  0  0  0  0  0  0  0  0  0  0  0
  -38.9032   58.7053   64.4192 C   0  0  0  0  0  0  0  0  0  0  0  0
  -40.0564   59.6189   64.0796 C   0  0  0  0  0  0  0  0  0  0  0  0
  -41.3658   59.4064   64.7164 C   0  0  0  0  0  0  0  0  0  0  0  0
  -41.5904   58.1532   65.5247 C   0  0  0  0  0  0  0  0  0  0  0  0
  -43.0807   57.8761   65.6884 C   0  0  0  0  0  0  0  0  0  0  0  0
  -43.8997   58.9003   64.9031 C   0  0  0  0  0  0  0  0  0  0  0  0
  -45.4007   58.6488   65.0391 C   0  0  0  0  0  0  0  0  0  0  0  0
  -45.7229   57.7555   66.2398 C   0  0  0  0  0  0  0  0  0  0  0  0
  -46.8856   56.8022   65.9762 C   0  0  0  0  0  0  0  0  0  0  0  0
  7  8  2  0  0  0
  7  6  1  0  0  0
  7  9  1  0  0  0
  6  5  1  0  0  0
  9 10  1  0  0  0
  5  4  1  0  0  0
  4  3  1  0  0  0
  3  2  1  0  0  0
  2  1  1  0  0  0
  1 11  1  0  0  0
 11 12  1  0  0  0
 12 13  2  0  0  0
 13 14  1  0  0  0
 14 15  1  0  0  0
 15 16  1  0  0  0
 16 17  1  0  0  0
 17 18  1  0  0  0
 18 19  1  0  0  0
M  END
> <minimizedAffinity>
-6.08833

> <CNNscore>
0.6131428480

> <CNNaffinity>
5.5785655975

> <CNN_VS>
3.4204576015

> <CNNaffinity_variance>
0.1300952137

$$$$
/media/chris/experiments/cd1a-new-docking/inputs/ligands/4x6d_2_ligand.pdb


 19 18  0  0  0  0  0  0  0  0999 V2000
  -43.9309   57.8298   64.9191 C   0  0  0  0  0  0  0  0  0  0  0  0
  -42.9463   57.9797   66.0707 C   0  0  0  0  0  0  0  0  0  0  0  0
  -41.8967   59.0451   65.8038 C   0  0  0  0  0  0  0  0  0  0  0  0
  -40.7135   58.4419   65.0647 C   0  0  0  0  0  0  0  0  0  0  0  0
  -39.6542   59.5122   64.8727 C   0  0  0  0  0  0  0  0  0  0  0  0
  -38.3297   58.9191   64.4192 C   0  0  0  0  0  0  0  0  0  0  0  0
  -38.4038   58.6145   62.9435 C   0  0  0  0  0  0  0  0  0  0  0  0
  -38.7578   59.4994   62.1402 O   0  0  0  0  0  0  0  0  0  0  0  0
  -38.1196   57.4810   62.5017 O   0  0  0  0  0  0  0  0  0  0  0  0
  -37.8514   56.8026   63.0896 H   0  0  0  0  0  0  0  0  0  0  0  0
  -44.9904   58.9087   65.0898 C   0  0  0  0  0  0  0  0  0  0  0  0
  -45.4452   59.0238   66.5250 C   0  0  0  0  0  0  0  0  0  0  0  0
  -46.7787   59.5692   66.8249 C   0  0  0  0  0  0  0  0  0  0  0  0
  -47.5753   60.2042   65.7129 C   0  0  0  0  0  0  0  0  0  0  0  0
  -49.0689   60.1357   66.0115 C   0  0  0  0  0  0  0  0  0  0  0  0
  -49.6805   58.8889   65.3729 C   0  0  0  0  0  0  0  0  0  0  0  0
  -49.0791   58.6049   63.9973 C   0  0  0  0  0  0  0  0  0  0  0  0
  -50.1518   58.5469   62.9067 C   0  0  0  0  0  0  0  0  0  0  0  0
  -51.0242   59.7987   62.8639 C   0  0  0  0  0  0  0  0  0  0  0  0
  7  8  2  0  0  0
  7  6  1  0  0  0
  7  9  1  0  0  0
  6  5  1  0  0  0
  9 10  1  0  0  0
  5  4  1  0  0  0
  4  3  1  0  0  0
  3  2  1  0  0  0
  2  1  1  0  0  0
  1 11  1  0  0  0
 11 12  1  0  0  0
 12 13  2  0  0  0
 13 14  1  0  0  0
 14 15  1  0  0  0
 15 16  1  0  0  0
 16 17  1  0  0  0
 17 18  1  0  0  0
 18 19  1  0  0  0
M  END
> <minimizedAffinity>
-6.15162

> <CNNscore>
0.5989419222

> <CNNaffinity>
6.0184130669

> <CNN_VS>
3.6046798229

> <CNNaffinity_variance>
0.3283787370

$$$$
