/media/chris/experiments/cd1a-new-docking/inputs/ligands/4x6d_2_ligand.pdb


 19 18  0  0  0  0  0  0  0  0999 V2000
  -45.7539   57.8528   65.8653 C   0  0  0  0  0  0  0  0  0  0  0  0
  -44.6928   57.8594   64.7736 C   0  0  0  0  0  0  0  0  0  0  0  0
  -43.3733   58.4443   65.2482 C   0  0  0  0  0  0  0  0  0  0  0  0
  -43.6242   59.5604   66.2488 C   0  0  0  0  0  0  0  0  0  0  0  0
  -42.2998   59.9838   66.8579 C   0  0  0  0  0  0  0  0  0  0  0  0
  -41.2017   60.0764   65.8104 C   0  0  0  0  0  0  0  0  0  0  0  0
  -41.0574   61.5122   65.3708 C   0  0  0  0  0  0  0  0  0  0  0  0
  -41.7002   61.9324   64.3890 O   0  0  0  0  0  0  0  0  0  0  0  0
  -40.2962   62.2997   65.9719 O   0  0  0  0  0  0  0  0  0  0  0  0
  -39.8046   62.0027   66.7122 H   0  0  0  0  0  0  0  0  0  0  0  0
  -46.9895   58.5345   65.2959 C   0  0  0  0  0  0  0  0  0  0  0  0
  -47.3266   59.7999   66.0474 C   0  0  0  0  0  0  0  0  0  0  0  0
  -48.7353   60.1778   66.2424 C   0  0  0  0  0  0  0  0  0  0  0  0
  -49.8055   59.4150   65.5028 C   0  0  0  0  0  0  0  0  0  0  0  0
  -50.6570   60.3588   64.6605 C   0  0  0  0  0  0  0  0  0  0  0  0
  -50.7467   59.8502   63.2219 C   0  0  0  0  0  0  0  0  0  0  0  0
  -50.0206   58.5173   63.0466 C   0  0  0  0  0  0  0  0  0  0  0  0
  -50.2988   57.8919   61.6774 C   0  0  0  0  0  0  0  0  0  0  0  0
  -49.8681   58.7854   60.5173 C   0  0  0  0  0  0  0  0  0  0  0  0
  7  8  2  0  0  0
  7  6  1  0  0  0
  7  9  1  0  0  0
  6  5  1  0  0  0
  9 10  1  0  0  0
  5  4  1  0  0  0
  4  3  1  0  0  0
  3  2  1  0  0  0
  2  1  1  0  0  0
  1 11  1  0  0  0
 11 12  1  0  0  0
 12 13  2  0  0  0
 13 14  1  0  0  0
 14 15  1  0  0  0
 15 16  1  0  0  0
 16 17  1  0  0  0
 17 18  1  0  0  0
 18 19  1  0  0  0
M  END
> <minimizedAffinity>
-6.60550

> <CNNscore>
0.8553259373

> <CNNaffinity>
6.3300995827

> <CNN_VS>
5.4142985344

> <CNNaffinity_variance>
0.5367958546

$$$$
/media/chris/experiments/cd1a-new-docking/inputs/ligands/4x6d_2_ligand.pdb


 19 18  0  0  0  0  0  0  0  0999 V2000
  -44.8452   57.4346   65.0436 C   0  0  0  0  0  0  0  0  0  0  0  0
  -43.9444   57.9634   66.1512 C   0  0  0  0  0  0  0  0  0  0  0  0
  -42.4687   57.7986   65.8295 C   0  0  0  0  0  0  0  0  0  0  0  0
  -41.9776   58.9759   65.0032 C   0  0  0  0  0  0  0  0  0  0  0  0
  -40.4610   58.9417   64.9485 C   0  0  0  0  0  0  0  0  0  0  0  0
  -39.8866   60.2457   64.4183 C   0  0  0  0  0  0  0  0  0  0  0  0
  -39.5231   61.1350   65.5814 C   0  0  0  0  0  0  0  0  0  0  0  0
  -40.3639   61.9283   66.0476 O   0  0  0  0  0  0  0  0  0  0  0  0
  -38.3837   61.0986   66.0926 O   0  0  0  0  0  0  0  0  0  0  0  0
  -37.7379   60.5089   65.7562 H   0  0  0  0  0  0  0  0  0  0  0  0
  -46.0579   58.3512   64.9740 C   0  0  0  0  0  0  0  0  0  0  0  0
  -47.2489   57.7583   65.6880 C   0  0  0  0  0  0  0  0  0  0  0  0
  -48.5730   57.7917   65.0471 C   0  0  0  0  0  0  0  0  0  0  0  0
  -48.7574   58.6088   63.7930 C   0  0  0  0  0  0  0  0  0  0  0  0
  -50.1507   59.2268   63.7511 C   0  0  0  0  0  0  0  0  0  0  0  0
  -50.7082   59.1811   62.3287 C   0  0  0  0  0  0  0  0  0  0  0  0
  -50.4137   57.8452   61.6481 C   0  0  0  0  0  0  0  0  0  0  0  0
  -50.1469   58.0146   60.1502 C   0  0  0  0  0  0  0  0  0  0  0  0
  -48.6596   58.0081   59.8070 C   0  0  0  0  0  0  0  0  0  0  0  0
  7  8  2  0  0  0
  7  6  1  0  0  0
  7  9  1  0  0  0
  6  5  1  0  0  0
  9 10  1  0  0  0
  5  4  1  0  0  0
  4  3  1  0  0  0
  3  2  1  0  0  0
  2  1  1  0  0  0
  1 11  1  0  0  0
 11 12  1  0  0  0
 12 13  2  0  0  0
 13 14  1  0  0  0
 14 15  1  0  0  0
 15 16  1  0  0  0
 16 17  1  0  0  0
 17 18  1  0  0  0
 18 19  1  0  0  0
M  END
> <minimizedAffinity>
-6.60769

> <CNNscore>
0.8054211140

> <CNNaffinity>
6.3891024590

> <CNN_VS>
5.1459178925

> <CNNaffinity_variance>
0.3765981197

$$$$
/media/chris/experiments/cd1a-new-docking/inputs/ligands/4x6d_2_ligand.pdb


 19 18  0  0  0  0  0  0  0  0999 V2000
  -43.7378   58.7188   64.6417 C   0  0  0  0  0  0  0  0  0  0  0  0
  -42.4281   59.0021   65.3644 C   0  0  0  0  0  0  0  0  0  0  0  0
  -41.5527   59.9925   64.6156 C   0  0  0  0  0  0  0  0  0  0  0  0
  -42.3720   60.7300   63.5693 C   0  0  0  0  0  0  0  0  0  0  0  0
  -41.4355   61.5359   62.6873 C   0  0  0  0  0  0  0  0  0  0  0  0
  -40.1155   60.8160   62.4612 C   0  0  0  0  0  0  0  0  0  0  0  0
  -39.7691   60.8677   60.9939 C   0  0  0  0  0  0  0  0  0  0  0  0
  -40.5839   61.3379   60.1761 O   0  0  0  0  0  0  0  0  0  0  0  0
  -38.6732   60.4411   60.5722 O   0  0  0  0  0  0  0  0  0  0  0  0
  -38.0476   60.0840   61.1714 H   0  0  0  0  0  0  0  0  0  0  0  0
  -44.8658   59.0582   65.6050 C   0  0  0  0  0  0  0  0  0  0  0  0
  -45.5073   57.8159   66.1750 C   0  0  0  0  0  0  0  0  0  0  0  0
  -46.8574   57.4273   65.7375 C   0  0  0  0  0  0  0  0  0  0  0  0
  -47.6593   58.3906   64.8988 C   0  0  0  0  0  0  0  0  0  0  0  0
  -49.0442   58.6059   65.4993 C   0  0  0  0  0  0  0  0  0  0  0  0
  -50.0746   58.8216   64.3912 C   0  0  0  0  0  0  0  0  0  0  0  0
  -49.5685   58.3150   63.0414 C   0  0  0  0  0  0  0  0  0  0  0  0
  -50.4699   58.7647   61.8888 C   0  0  0  0  0  0  0  0  0  0  0  0
  -50.8514   57.6217   60.9519 C   0  0  0  0  0  0  0  0  0  0  0  0
  7  8  2  0  0  0
  7  6  1  0  0  0
  7  9  1  0  0  0
  6  5  1  0  0  0
  9 10  1  0  0  0
  5  4  1  0  0  0
  4  3  1  0  0  0
  3  2  1  0  0  0
  2  1  1  0  0  0
  1 11  1  0  0  0
 11 12  1  0  0  0
 12 13  2  0  0  0
 13 14  1  0  0  0
 14 15  1  0  0  0
 15 16  1  0  0  0
 16 17  1  0  0  0
 17 18  1  0  0  0
 18 19  1  0  0  0
M  END
> <minimizedAffinity>
-6.26973

> <CNNscore>
0.7874194980

> <CNNaffinity>
6.3375182152

> <CNN_VS>
4.9902853966

> <CNNaffinity_variance>
0.5716881752

$$$$
/media/chris/experiments/cd1a-new-docking/inputs/ligands/4x6d_2_ligand.pdb


 19 18  0  0  0  0  0  0  0  0999 V2000
  -45.0638   57.6419   64.9505 C   0  0  0  0  0  0  0  0  0  0  0  0
  -43.8238   58.5251   64.9479 C   0  0  0  0  0  0  0  0  0  0  0  0
  -42.6938   57.9441   65.7808 C   0  0  0  0  0  0  0  0  0  0  0  0
  -41.5036   58.8892   65.7818 C   0  0  0  0  0  0  0  0  0  0  0  0
  -40.4027   58.2971   64.9204 C   0  0  0  0  0  0  0  0  0  0  0  0
  -39.2998   59.3063   64.6432 C   0  0  0  0  0  0  0  0  0  0  0  0
  -37.9917   58.5746   64.4726 C   0  0  0  0  0  0  0  0  0  0  0  0
  -37.0818   58.7180   65.3124 O   0  0  0  0  0  0  0  0  0  0  0  0
  -37.7936   57.8222   63.4951 O   0  0  0  0  0  0  0  0  0  0  0  0
  -38.4654   57.7015   62.8531 H   0  0  0  0  0  0  0  0  0  0  0  0
  -46.2728   58.5635   64.8810 C   0  0  0  0  0  0  0  0  0  0  0  0
  -47.4840   57.9479   65.5395 C   0  0  0  0  0  0  0  0  0  0  0  0
  -48.7822   57.9757   64.8473 C   0  0  0  0  0  0  0  0  0  0  0  0
  -48.9265   58.8080   63.5980 C   0  0  0  0  0  0  0  0  0  0  0  0
  -50.0569   58.2772   62.7231 C   0  0  0  0  0  0  0  0  0  0  0  0
  -50.0351   58.9610   61.3563 C   0  0  0  0  0  0  0  0  0  0  0  0
  -50.3627   57.9831   60.2290 C   0  0  0  0  0  0  0  0  0  0  0  0
  -49.2191   56.9964   59.9794 C   0  0  0  0  0  0  0  0  0  0  0  0
  -47.9225   57.6835   59.5592 C   0  0  0  0  0  0  0  0  0  0  0  0
  7  8  2  0  0  0
  7  6  1  0  0  0
  7  9  1  0  0  0
  6  5  1  0  0  0
  9 10  1  0  0  0
  5  4  1  0  0  0
  4  3  1  0  0  0
  3  2  1  0  0  0
  2  1  1  0  0  0
  1 11  1  0  0  0
 11 12  1  0  0  0
 12 13  2  0  0  0
 13 14  1  0  0  0
 14 15  1  0  0  0
 15 16  1  0  0  0
 16 17  1  0  0  0
 17 18  1  0  0  0
 18 19  1  0  0  0
M  END
> <minimizedAffinity>
-6.32091

> <CNNscore>
0.7340477705

> <CNNaffinity>
6.3391051292

> <CNN_VS>
4.6532058716

> <CNNaffinity_variance>
0.4501752853

$$$$
/media/chris/experiments/cd1a-new-docking/inputs/ligands/4x6d_2_ligand.pdb


 19 18  0  0  0  0  0  0  0  0999 V2000
  -48.2059   58.0430   65.3269 C   0  0  0  0  0  0  0  0  0  0  0  0
  -47.1072   58.9054   64.7212 C   0  0  0  0  0  0  0  0  0  0  0  0
  -46.0924   59.3652   65.7541 C   0  0  0  0  0  0  0  0  0  0  0  0
  -45.2485   60.4974   65.1921 C   0  0  0  0  0  0  0  0  0  0  0  0
  -43.8499   59.9780   64.9118 C   0  0  0  0  0  0  0  0  0  0  0  0
  -43.3125   59.1526   66.0700 C   0  0  0  0  0  0  0  0  0  0  0  0
  -42.2801   59.9608   66.8161 C   0  0  0  0  0  0  0  0  0  0  0  0
  -41.0666   59.7294   66.6502 O   0  0  0  0  0  0  0  0  0  0  0  0
  -42.6160   60.8651   67.6099 O   0  0  0  0  0  0  0  0  0  0  0  0
  -43.5233   61.0541   67.7481 H   0  0  0  0  0  0  0  0  0  0  0  0
  -49.4667   58.2802   64.5085 C   0  0  0  0  0  0  0  0  0  0  0  0
  -49.3156   59.4591   63.5774 C   0  0  0  0  0  0  0  0  0  0  0  0
  -50.0312   59.4681   62.2916 C   0  0  0  0  0  0  0  0  0  0  0  0
  -50.7238   58.2097   61.8321 C   0  0  0  0  0  0  0  0  0  0  0  0
  -49.8649   57.4594   60.8200 C   0  0  0  0  0  0  0  0  0  0  0  0
  -50.0297   58.0704   59.4287 C   0  0  0  0  0  0  0  0  0  0  0  0
  -48.9561   57.5736   58.4617 C   0  0  0  0  0  0  0  0  0  0  0  0
  -47.5619   58.0702   58.8531 C   0  0  0  0  0  0  0  0  0  0  0  0
  -46.7710   58.6162   57.6673 C   0  0  0  0  0  0  0  0  0  0  0  0
  7  8  2  0  0  0
  7  6  1  0  0  0
  7  9  1  0  0  0
  6  5  1  0  0  0
  9 10  1  0  0  0
  5  4  1  0  0  0
  4  3  1  0  0  0
  3  2  1  0  0  0
  2  1  1  0  0  0
  1 11  1  0  0  0
 11 12  1  0  0  0
 12 13  2  0  0  0
 13 14  1  0  0  0
 14 15  1  0  0  0
 15 16  1  0  0  0
 16 17  1  0  0  0
 17 18  1  0  0  0
 18 19  1  0  0  0
M  END
> <minimizedAffinity>
-6.98497

> <CNNscore>
0.7169763446

> <CNNaffinity>
6.3676466942

> <CNN_VS>
4.5654520988

> <CNNaffinity_variance>
0.4493504465

$$$$
/media/chris/experiments/cd1a-new-docking/inputs/ligands/4x6d_2_ligand.pdb


 19 18  0  0  0  0  0  0  0  0999 V2000
  -41.9009   59.1921   66.7824 C   0  0  0  0  0  0  0  0  0  0  0  0
  -41.0127   59.6647   65.6398 C   0  0  0  0  0  0  0  0  0  0  0  0
  -40.3618   58.5124   64.8938 C   0  0  0  0  0  0  0  0  0  0  0  0
  -38.9812   58.9178   64.4044 C   0  0  0  0  0  0  0  0  0  0  0  0
  -38.6177   60.2613   65.0104 C   0  0  0  0  0  0  0  0  0  0  0  0
  -37.3195   60.1913   65.7986 C   0  0  0  0  0  0  0  0  0  0  0  0
  -36.8453   61.5922   66.0959 C   0  0  0  0  0  0  0  0  0  0  0  0
  -37.0739   62.5134   65.2880 O   0  0  0  0  0  0  0  0  0  0  0  0
  -36.2171   61.8542   67.1435 O   0  0  0  0  0  0  0  0  0  0  0  0
  -36.0355   61.1752   67.7632 H   0  0  0  0  0  0  0  0  0  0  0  0
  -43.0358   60.1971   66.9154 C   0  0  0  0  0  0  0  0  0  0  0  0
  -43.8006   60.3514   65.6228 C   0  0  0  0  0  0  0  0  0  0  0  0
  -45.2488   60.0918   65.5981 C   0  0  0  0  0  0  0  0  0  0  0  0
  -45.8999   59.4669   66.8063 C   0  0  0  0  0  0  0  0  0  0  0  0
  -47.1397   58.6761   66.4032 C   0  0  0  0  0  0  0  0  0  0  0  0
  -47.2170   58.5508   64.8818 C   0  0  0  0  0  0  0  0  0  0  0  0
  -48.6519   58.6872   64.3750 C   0  0  0  0  0  0  0  0  0  0  0  0
  -49.6630   58.7110   65.5242 C   0  0  0  0  0  0  0  0  0  0  0  0
  -50.4822   59.9981   65.5685 C   0  0  0  0  0  0  0  0  0  0  0  0
  7  8  2  0  0  0
  7  6  1  0  0  0
  7  9  1  0  0  0
  6  5  1  0  0  0
  9 10  1  0  0  0
  5  4  1  0  0  0
  4  3  1  0  0  0
  3  2  1  0  0  0
  2  1  1  0  0  0
  1 11  1  0  0  0
 11 12  1  0  0  0
 12 13  2  0  0  0
 13 14  1  0  0  0
 14 15  1  0  0  0
 15 16  1  0  0  0
 16 17  1  0  0  0
 17 18  1  0  0  0
 18 19  1  0  0  0
M  END
> <minimizedAffinity>
-6.23177

> <CNNscore>
0.7112416625

> <CNNaffinity>
6.0204105377

> <CNN_VS>
4.2819666862

> <CNNaffinity_variance>
0.2254216373

$$$$
/media/chris/experiments/cd1a-new-docking/inputs/ligands/4x6d_2_ligand.pdb


 19 18  0  0  0  0  0  0  0  0999 V2000
  -45.3803   58.2943   64.7537 C   0  0  0  0  0  0  0  0  0  0  0  0
  -44.2660   57.5370   65.4628 C   0  0  0  0  0  0  0  0  0  0  0  0
  -42.9036   58.1757   65.2534 C   0  0  0  0  0  0  0  0  0  0  0  0
  -42.1731   58.2997   66.5803 C   0  0  0  0  0  0  0  0  0  0  0  0
  -41.6108   59.7042   66.7046 C   0  0  0  0  0  0  0  0  0  0  0  0
  -40.5715   59.9921   65.6328 C   0  0  0  0  0  0  0  0  0  0  0  0
  -40.1258   61.4286   65.7493 C   0  0  0  0  0  0  0  0  0  0  0  0
  -38.9108   61.7047   65.7822 O   0  0  0  0  0  0  0  0  0  0  0  0
  -40.9555   62.3600   65.8191 O   0  0  0  0  0  0  0  0  0  0  0  0
  -41.8733   62.1726   65.7960 H   0  0  0  0  0  0  0  0  0  0  0  0
  -45.4297   59.6906   65.3567 C   0  0  0  0  0  0  0  0  0  0  0  0
  -46.4490   59.7847   66.4666 C   0  0  0  0  0  0  0  0  0  0  0  0
  -47.7600   60.3979   66.2013 C   0  0  0  0  0  0  0  0  0  0  0  0
  -47.9797   61.1157   64.8933 C   0  0  0  0  0  0  0  0  0  0  0  0
  -49.4692   61.2762   64.6090 C   0  0  0  0  0  0  0  0  0  0  0  0
  -50.1372   59.9064   64.4928 C   0  0  0  0  0  0  0  0  0  0  0  0
  -50.7853   59.7071   63.1235 C   0  0  0  0  0  0  0  0  0  0  0  0
  -49.9399   58.8081   62.2177 C   0  0  0  0  0  0  0  0  0  0  0  0
  -50.7839   57.9063   61.3208 C   0  0  0  0  0  0  0  0  0  0  0  0
  7  8  2  0  0  0
  7  6  1  0  0  0
  7  9  1  0  0  0
  6  5  1  0  0  0
  9 10  1  0  0  0
  5  4  1  0  0  0
  4  3  1  0  0  0
  3  2  1  0  0  0
  2  1  1  0  0  0
  1 11  1  0  0  0
 11 12  1  0  0  0
 12 13  2  0  0  0
 13 14  1  0  0  0
 14 15  1  0  0  0
 15 16  1  0  0  0
 16 17  1  0  0  0
 17 18  1  0  0  0
 18 19  1  0  0  0
M  END
> <minimizedAffinity>
-6.70601

> <CNNscore>
0.7000173926

> <CNNaffinity>
6.0222721100

> <CNN_VS>
4.2156953812

> <CNNaffinity_variance>
0.2255671918

$$$$
/media/chris/experiments/cd1a-new-docking/inputs/ligands/4x6d_2_ligand.pdb


 19 18  0  0  0  0  0  0  0  0999 V2000
  -49.6803   59.1730   65.6573 C   0  0  0  0  0  0  0  0  0  0  0  0
  -49.2349   60.6277   65.6004 C   0  0  0  0  0  0  0  0  0  0  0  0
  -47.8065   60.8181   66.0814 C   0  0  0  0  0  0  0  0  0  0  0  0
  -47.2791   59.5258   66.6829 C   0  0  0  0  0  0  0  0  0  0  0  0
  -45.9680   59.1662   66.0075 C   0  0  0  0  0  0  0  0  0  0  0  0
  -45.3218   60.3759   65.3513 C   0  0  0  0  0  0  0  0  0  0  0  0
  -43.8229   60.2066   65.3694 C   0  0  0  0  0  0  0  0  0  0  0  0
  -43.1552   60.6564   66.3209 O   0  0  0  0  0  0  0  0  0  0  0  0
  -43.2262   59.6228   64.4399 O   0  0  0  0  0  0  0  0  0  0  0  0
  -43.7107   59.2777   63.7159 H   0  0  0  0  0  0  0  0  0  0  0  0
  -49.6237   58.6292   64.2371 C   0  0  0  0  0  0  0  0  0  0  0  0
  -49.7213   59.7329   63.2114 C   0  0  0  0  0  0  0  0  0  0  0  0
  -50.3494   59.4627   61.9084 C   0  0  0  0  0  0  0  0  0  0  0  0
  -50.6841   58.0392   61.5398 C   0  0  0  0  0  0  0  0  0  0  0  0
  -50.3194   57.7578   60.0862 C   0  0  0  0  0  0  0  0  0  0  0  0
  -49.4435   56.5088   59.9919 C   0  0  0  0  0  0  0  0  0  0  0  0
  -48.2669   56.7135   59.0388 C   0  0  0  0  0  0  0  0  0  0  0  0
  -47.9586   58.1974   58.8234 C   0  0  0  0  0  0  0  0  0  0  0  0
  -46.6901   58.4284   58.0065 C   0  0  0  0  0  0  0  0  0  0  0  0
  7  8  2  0  0  0
  7  6  1  0  0  0
  7  9  1  0  0  0
  6  5  1  0  0  0
  9 10  1  0  0  0
  5  4  1  0  0  0
  4  3  1  0  0  0
  3  2  1  0  0  0
  2  1  1  0  0  0
  1 11  1  0  0  0
 11 12  1  0  0  0
 12 13  2  0  0  0
 13 14  1  0  0  0
 14 15  1  0  0  0
 15 16  1  0  0  0
 16 17  1  0  0  0
 17 18  1  0  0  0
 18 19  1  0  0  0
M  END
> <minimizedAffinity>
-6.90425

> <CNNscore>
0.6990867853

> <CNNaffinity>
6.3300375938

> <CNN_VS>
4.4252457619

> <CNNaffinity_variance>
0.2462913692

$$$$
/media/chris/experiments/cd1a-new-docking/inputs/ligands/4x6d_2_ligand.pdb


 19 18  0  0  0  0  0  0  0  0999 V2000
  -46.5091   60.0541   66.1020 C   0  0  0  0  0  0  0  0  0  0  0  0
  -45.7187   60.7511   65.0032 C   0  0  0  0  0  0  0  0  0  0  0  0
  -44.2323   60.4442   65.0717 C   0  0  0  0  0  0  0  0  0  0  0  0
  -43.9599   59.4084   66.1499 C   0  0  0  0  0  0  0  0  0  0  0  0
  -42.6549   59.7516   66.8453 C   0  0  0  0  0  0  0  0  0  0  0  0
  -42.1851   61.1560   66.5008 C   0  0  0  0  0  0  0  0  0  0  0  0
  -40.7550   61.0962   66.0247 C   0  0  0  0  0  0  0  0  0  0  0  0
  -40.2254   59.9957   65.7753 O   0  0  0  0  0  0  0  0  0  0  0  0
  -40.0781   62.1357   65.8765 O   0  0  0  0  0  0  0  0  0  0  0  0
  -40.4585   62.9724   66.0588 H   0  0  0  0  0  0  0  0  0  0  0  0
  -47.8748   60.7223   66.1667 C   0  0  0  0  0  0  0  0  0  0  0  0
  -48.2464   61.3639   64.8515 C   0  0  0  0  0  0  0  0  0  0  0  0
  -49.3039   60.7647   64.0220 C   0  0  0  0  0  0  0  0  0  0  0  0
  -49.8416   59.4055   64.3931 C   0  0  0  0  0  0  0  0  0  0  0  0
  -49.6350   58.4136   63.2535 C   0  0  0  0  0  0  0  0  0  0  0  0
  -50.3212   58.9153   61.9832 C   0  0  0  0  0  0  0  0  0  0  0  0
  -50.7751   57.7606   61.0915 C   0  0  0  0  0  0  0  0  0  0  0  0
  -50.3678   57.9733   59.6313 C   0  0  0  0  0  0  0  0  0  0  0  0
  -48.8668   58.1898   59.4585 C   0  0  0  0  0  0  0  0  0  0  0  0
  7  8  2  0  0  0
  7  6  1  0  0  0
  7  9  1  0  0  0
  6  5  1  0  0  0
  9 10  1  0  0  0
  5  4  1  0  0  0
  4  3  1  0  0  0
  3  2  1  0  0  0
  2  1  1  0  0  0
  1 11  1  0  0  0
 11 12  1  0  0  0
 12 13  2  0  0  0
 13 14  1  0  0  0
 14 15  1  0  0  0
 15 16  1  0  0  0
 16 17  1  0  0  0
 17 18  1  0  0  0
 18 19  1  0  0  0
M  END
> <minimizedAffinity>
-6.90264

> <CNNscore>
0.6622791290

> <CNNaffinity>
5.9845972061

> <CNN_VS>
3.9634737968

> <CNNaffinity_variance>
0.3727763295

$$$$
