/media/chris/experiments/cd1a-new-docking/inputs/ligands/4x6d_2_ligand.pdb


 19 18  0  0  0  0  0  0  0  0999 V2000
  -44.3783   59.8860   65.5522 C   0  0  0  0  0  0  0  0  0  0  0  0
  -43.8414   58.6111   64.9161 C   0  0  0  0  0  0  0  0  0  0  0  0
  -42.7871   57.9323   65.7738 C   0  0  0  0  0  0  0  0  0  0  0  0
  -41.7720   58.9526   66.2621 C   0  0  0  0  0  0  0  0  0  0  0  0
  -40.6164   59.0081   65.2792 C   0  0  0  0  0  0  0  0  0  0  0  0
  -40.5145   60.3673   64.6054 C   0  0  0  0  0  0  0  0  0  0  0  0
  -39.9133   61.3554   65.5738 C   0  0  0  0  0  0  0  0  0  0  0  0
  -38.7662   61.1692   66.0247 O   0  0  0  0  0  0  0  0  0  0  0  0
  -40.5470   62.3668   65.9435 O   0  0  0  0  0  0  0  0  0  0  0  0
  -41.4105   62.5242   65.6157 H   0  0  0  0  0  0  0  0  0  0  0  0
  -45.8719   59.9375   65.2650 C   0  0  0  0  0  0  0  0  0  0  0  0
  -46.4491   58.5580   65.0558 C   0  0  0  0  0  0  0  0  0  0  0  0
  -47.8937   58.3390   65.2302 C   0  0  0  0  0  0  0  0  0  0  0  0
  -48.7332   59.4411   65.8258 C   0  0  0  0  0  0  0  0  0  0  0  0
  -49.8336   59.8642   64.8587 C   0  0  0  0  0  0  0  0  0  0  0  0
  -50.1151   58.7467   63.8545 C   0  0  0  0  0  0  0  0  0  0  0  0
  -50.2696   59.2883   62.4341 C   0  0  0  0  0  0  0  0  0  0  0  0
  -49.8500   58.2586   61.3820 C   0  0  0  0  0  0  0  0  0  0  0  0
  -51.0350   57.5100   60.7775 C   0  0  0  0  0  0  0  0  0  0  0  0
  7  8  2  0  0  0
  7  6  1  0  0  0
  7  9  1  0  0  0
  6  5  1  0  0  0
  9 10  1  0  0  0
  5  4  1  0  0  0
  4  3  1  0  0  0
  3  2  1  0  0  0
  2  1  1  0  0  0
  1 11  1  0  0  0
 11 12  1  0  0  0
 12 13  2  0  0  0
 13 14  1  0  0  0
 14 15  1  0  0  0
 15 16  1  0  0  0
 16 17  1  0  0  0
 17 18  1  0  0  0
 18 19  1  0  0  0
M  END
> <minimizedAffinity>
-6.58733

> <CNNscore>
0.7872234583

> <CNNaffinity>
6.2885179520

> <CNN_VS>
4.9504690170

> <CNNaffinity_variance>
0.4225549698

$$$$
/media/chris/experiments/cd1a-new-docking/inputs/ligands/4x6d_2_ligand.pdb


 19 18  0  0  0  0  0  0  0  0999 V2000
  -46.1081   60.2918   65.4979 C   0  0  0  0  0  0  0  0  0  0  0  0
  -45.8091   59.0992   66.3958 C   0  0  0  0  0  0  0  0  0  0  0  0
  -44.6748   58.2401   65.8636 C   0  0  0  0  0  0  0  0  0  0  0  0
  -43.5424   59.1199   65.3604 C   0  0  0  0  0  0  0  0  0  0  0  0
  -42.5077   59.2698   66.4611 C   0  0  0  0  0  0  0  0  0  0  0  0
  -42.3049   60.7257   66.8493 C   0  0  0  0  0  0  0  0  0  0  0  0
  -41.0852   61.2610   66.1413 C   0  0  0  0  0  0  0  0  0  0  0  0
  -40.1198   60.5087   65.9048 O   0  0  0  0  0  0  0  0  0  0  0  0
  -41.0159   62.4567   65.7855 O   0  0  0  0  0  0  0  0  0  0  0  0
  -41.7313   63.0378   65.9543 H   0  0  0  0  0  0  0  0  0  0  0  0
  -47.5230   60.7520   65.8174 C   0  0  0  0  0  0  0  0  0  0  0  0
  -48.1896   61.3838   64.6190 C   0  0  0  0  0  0  0  0  0  0  0  0
  -49.2560   60.6573   63.9117 C   0  0  0  0  0  0  0  0  0  0  0  0
  -49.5105   59.2121   64.2597 C   0  0  0  0  0  0  0  0  0  0  0  0
  -49.4722   58.3408   63.0089 C   0  0  0  0  0  0  0  0  0  0  0  0
  -50.6323   58.6966   62.0794 C   0  0  0  0  0  0  0  0  0  0  0  0
  -50.7943   57.6708   60.9587 C   0  0  0  0  0  0  0  0  0  0  0  0
  -50.2126   58.1747   59.6353 C   0  0  0  0  0  0  0  0  0  0  0  0
  -48.7725   57.7224   59.4087 C   0  0  0  0  0  0  0  0  0  0  0  0
  7  8  2  0  0  0
  7  6  1  0  0  0
  7  9  1  0  0  0
  6  5  1  0  0  0
  9 10  1  0  0  0
  5  4  1  0  0  0
  4  3  1  0  0  0
  3  2  1  0  0  0
  2  1  1  0  0  0
  1 11  1  0  0  0
 11 12  1  0  0  0
 12 13  2  0  0  0
 13 14  1  0  0  0
 14 15  1  0  0  0
 15 16  1  0  0  0
 16 17  1  0  0  0
 17 18  1  0  0  0
 18 19  1  0  0  0
M  END
> <minimizedAffinity>
-6.74904

> <CNNscore>
0.7827489972

> <CNNaffinity>
6.1408653259

> <CNN_VS>
4.8067560196

> <CNNaffinity_variance>
0.4298477173

$$$$
/media/chris/experiments/cd1a-new-docking/inputs/ligands/4x6d_2_ligand.pdb


 19 18  0  0  0  0  0  0  0  0999 V2000
  -48.7441   60.2247   66.2783 C   0  0  0  0  0  0  0  0  0  0  0  0
  -47.9859   61.0212   65.2254 C   0  0  0  0  0  0  0  0  0  0  0  0
  -46.4963   60.7227   65.2308 C   0  0  0  0  0  0  0  0  0  0  0  0
  -46.1167   59.9719   66.4965 C   0  0  0  0  0  0  0  0  0  0  0  0
  -44.7166   59.4081   66.3344 C   0  0  0  0  0  0  0  0  0  0  0  0
  -43.8308   60.3278   65.5090 C   0  0  0  0  0  0  0  0  0  0  0  0
  -42.6632   60.7771   66.3517 C   0  0  0  0  0  0  0  0  0  0  0  0
  -41.6180   61.1815   65.8060 O   0  0  0  0  0  0  0  0  0  0  0  0
  -42.7170   60.7494   67.5997 O   0  0  0  0  0  0  0  0  0  0  0  0
  -43.4940   60.4488   68.0285 H   0  0  0  0  0  0  0  0  0  0  0  0
  -49.7811   59.3849   65.5466 C   0  0  0  0  0  0  0  0  0  0  0  0
  -50.6093   60.2194   64.5993 C   0  0  0  0  0  0  0  0  0  0  0  0
  -50.7489   59.8040   63.1946 C   0  0  0  0  0  0  0  0  0  0  0  0
  -49.8881   58.6794   62.6763 C   0  0  0  0  0  0  0  0  0  0  0  0
  -50.4460   58.1317   61.3671 C   0  0  0  0  0  0  0  0  0  0  0  0
  -49.7644   58.8066   60.1770 C   0  0  0  0  0  0  0  0  0  0  0  0
  -49.1623   57.7834   59.2152 C   0  0  0  0  0  0  0  0  0  0  0  0
  -47.6318   57.8068   59.2418 C   0  0  0  0  0  0  0  0  0  0  0  0
  -47.0272   58.5124   58.0309 C   0  0  0  0  0  0  0  0  0  0  0  0
  7  8  2  0  0  0
  7  6  1  0  0  0
  7  9  1  0  0  0
  6  5  1  0  0  0
  9 10  1  0  0  0
  5  4  1  0  0  0
  4  3  1  0  0  0
  3  2  1  0  0  0
  2  1  1  0  0  0
  1 11  1  0  0  0
 11 12  1  0  0  0
 12 13  2  0  0  0
 13 14  1  0  0  0
 14 15  1  0  0  0
 15 16  1  0  0  0
 16 17  1  0  0  0
 17 18  1  0  0  0
 18 19  1  0  0  0
M  END
> <minimizedAffinity>
-7.21298

> <CNNscore>
0.7064116001

> <CNNaffinity>
6.2037940025

> <CNN_VS>
4.3824319839

> <CNNaffinity_variance>
0.3173891306

$$$$
/media/chris/experiments/cd1a-new-docking/inputs/ligands/4x6d_2_ligand.pdb


 19 18  0  0  0  0  0  0  0  0999 V2000
  -49.4108   59.4144   65.4507 C   0  0  0  0  0  0  0  0  0  0  0  0
  -48.3414   60.1092   66.2824 C   0  0  0  0  0  0  0  0  0  0  0  0
  -47.2920   60.7958   65.4249 C   0  0  0  0  0  0  0  0  0  0  0  0
  -45.9361   60.1411   65.6313 C   0  0  0  0  0  0  0  0  0  0  0  0
  -46.0024   59.2443   66.8543 C   0  0  0  0  0  0  0  0  0  0  0  0
  -45.7362   57.7895   66.5014 C   0  0  0  0  0  0  0  0  0  0  0  0
  -44.3951   57.6836   65.8191 C   0  0  0  0  0  0  0  0  0  0  0  0
  -44.3129   57.1936   64.6759 O   0  0  0  0  0  0  0  0  0  0  0  0
  -43.3503   58.0758   66.3809 O   0  0  0  0  0  0  0  0  0  0  0  0
  -43.3915   58.4470   67.2402 H   0  0  0  0  0  0  0  0  0  0  0  0
  -49.4150   60.0759   64.0802 C   0  0  0  0  0  0  0  0  0  0  0  0
  -50.7525   59.9329   63.3943 C   0  0  0  0  0  0  0  0  0  0  0  0
  -50.8892   59.0203   62.2481 C   0  0  0  0  0  0  0  0  0  0  0  0
  -49.6472   58.4143   61.6443 C   0  0  0  0  0  0  0  0  0  0  0  0
  -49.9826   57.6618   60.3612 C   0  0  0  0  0  0  0  0  0  0  0  0
  -49.0210   58.0650   59.2435 C   0  0  0  0  0  0  0  0  0  0  0  0
  -47.7869   57.1649   59.2070 C   0  0  0  0  0  0  0  0  0  0  0  0
  -46.5192   57.9486   58.8573 C   0  0  0  0  0  0  0  0  0  0  0  0
  -46.6427   58.7253   57.5492 C   0  0  0  0  0  0  0  0  0  0  0  0
  7  8  2  0  0  0
  7  6  1  0  0  0
  7  9  1  0  0  0
  6  5  1  0  0  0
  9 10  1  0  0  0
  5  4  1  0  0  0
  4  3  1  0  0  0
  3  2  1  0  0  0
  2  1  1  0  0  0
  1 11  1  0  0  0
 11 12  1  0  0  0
 12 13  2  0  0  0
 13 14  1  0  0  0
 14 15  1  0  0  0
 15 16  1  0  0  0
 16 17  1  0  0  0
 17 18  1  0  0  0
 18 19  1  0  0  0
M  END
> <minimizedAffinity>
-7.07042

> <CNNscore>
0.7030076385

> <CNNaffinity>
6.3133535385

> <CNN_VS>
4.4383358955

> <CNNaffinity_variance>
0.4806645513

$$$$
/media/chris/experiments/cd1a-new-docking/inputs/ligands/4x6d_2_ligand.pdb


 19 18  0  0  0  0  0  0  0  0999 V2000
  -47.2923   57.4672   65.8350 C   0  0  0  0  0  0  0  0  0  0  0  0
  -45.8575   57.7169   66.2786 C   0  0  0  0  0  0  0  0  0  0  0  0
  -44.8404   57.1055   65.3300 C   0  0  0  0  0  0  0  0  0  0  0  0
  -44.3496   58.1514   64.3426 C   0  0  0  0  0  0  0  0  0  0  0  0
  -44.0214   59.4269   65.0975 C   0  0  0  0  0  0  0  0  0  0  0  0
  -42.6149   59.9167   64.7917 C   0  0  0  0  0  0  0  0  0  0  0  0
  -41.6192   59.0425   65.5127 C   0  0  0  0  0  0  0  0  0  0  0  0
  -41.7379   58.8389   66.7368 O   0  0  0  0  0  0  0  0  0  0  0  0
  -40.6632   58.5141   64.9061 O   0  0  0  0  0  0  0  0  0  0  0  0
  -40.5569   58.6551   63.9859 H   0  0  0  0  0  0  0  0  0  0  0  0
  -47.7737   58.7308   65.1368 C   0  0  0  0  0  0  0  0  0  0  0  0
  -49.2809   58.8159   65.1110 C   0  0  0  0  0  0  0  0  0  0  0  0
  -50.0018   58.5851   63.8491 C   0  0  0  0  0  0  0  0  0  0  0  0
  -49.2156   58.4858   62.5660 C   0  0  0  0  0  0  0  0  0  0  0  0
  -50.1118   58.0367   61.4170 C   0  0  0  0  0  0  0  0  0  0  0  0
  -49.7354   58.7738   60.1320 C   0  0  0  0  0  0  0  0  0  0  0  0
  -49.1005   57.8354   59.1068 C   0  0  0  0  0  0  0  0  0  0  0  0
  -47.5726   57.8363   59.2018 C   0  0  0  0  0  0  0  0  0  0  0  0
  -46.9023   58.4794   57.9906 C   0  0  0  0  0  0  0  0  0  0  0  0
  7  8  2  0  0  0
  7  6  1  0  0  0
  7  9  1  0  0  0
  6  5  1  0  0  0
  9 10  1  0  0  0
  5  4  1  0  0  0
  4  3  1  0  0  0
  3  2  1  0  0  0
  2  1  1  0  0  0
  1 11  1  0  0  0
 11 12  1  0  0  0
 12 13  2  0  0  0
 13 14  1  0  0  0
 14 15  1  0  0  0
 15 16  1  0  0  0
 16 17  1  0  0  0
 17 18  1  0  0  0
 18 19  1  0  0  0
M  END
> <minimizedAffinity>
-6.77762

> <CNNscore>
0.6970018744

> <CNNaffinity>
6.2966933250

> <CNN_VS>
4.3888068199

> <CNNaffinity_variance>
0.3338500857

$$$$
/media/chris/experiments/cd1a-new-docking/inputs/ligands/4x6d_2_ligand.pdb


 19 18  0  0  0  0  0  0  0  0999 V2000
  -40.7009   59.7280   65.1389 C   0  0  0  0  0  0  0  0  0  0  0  0
  -39.3414   59.0433   65.1680 C   0  0  0  0  0  0  0  0  0  0  0  0
  -39.1904   58.0025   64.0717 C   0  0  0  0  0  0  0  0  0  0  0  0
  -38.4078   58.5806   62.9041 C   0  0  0  0  0  0  0  0  0  0  0  0
  -37.4420   57.5289   62.3887 C   0  0  0  0  0  0  0  0  0  0  0  0
  -37.1262   57.7277   60.9148 C   0  0  0  0  0  0  0  0  0  0  0  0
  -35.8662   56.9723   60.5727 C   0  0  0  0  0  0  0  0  0  0  0  0
  -35.8953   56.0619   59.7217 O   0  0  0  0  0  0  0  0  0  0  0  0
  -34.7808   57.2369   61.1320 O   0  0  0  0  0  0  0  0  0  0  0  0
  -34.7385   57.9179   61.7743 H   0  0  0  0  0  0  0  0  0  0  0  0
  -41.3799   59.4365   66.4692 C   0  0  0  0  0  0  0  0  0  0  0  0
  -42.6854   60.1826   66.6060 C   0  0  0  0  0  0  0  0  0  0  0  0
  -43.9504   59.5010   66.2891 C   0  0  0  0  0  0  0  0  0  0  0  0
  -43.9048   58.1470   65.6264 C   0  0  0  0  0  0  0  0  0  0  0  0
  -45.2332   57.8336   64.9466 C   0  0  0  0  0  0  0  0  0  0  0  0
  -46.2960   57.4936   65.9913 C   0  0  0  0  0  0  0  0  0  0  0  0
  -47.6010   58.2464   65.7364 C   0  0  0  0  0  0  0  0  0  0  0  0
  -47.6291   59.5987   66.4534 C   0  0  0  0  0  0  0  0  0  0  0  0
  -47.4126   60.7772   65.5078 C   0  0  0  0  0  0  0  0  0  0  0  0
  7  8  2  0  0  0
  7  6  1  0  0  0
  7  9  1  0  0  0
  6  5  1  0  0  0
  9 10  1  0  0  0
  5  4  1  0  0  0
  4  3  1  0  0  0
  3  2  1  0  0  0
  2  1  1  0  0  0
  1 11  1  0  0  0
 11 12  1  0  0  0
 12 13  2  0  0  0
 13 14  1  0  0  0
 14 15  1  0  0  0
 15 16  1  0  0  0
 16 17  1  0  0  0
 17 18  1  0  0  0
 18 19  1  0  0  0
M  END
> <minimizedAffinity>
-6.14871

> <CNNscore>
0.6748299003

> <CNNaffinity>
5.8098144531

> <CNN_VS>
3.9206364155

> <CNNaffinity_variance>
0.2175997198

$$$$
/media/chris/experiments/cd1a-new-docking/inputs/ligands/4x6d_2_ligand.pdb


 19 18  0  0  0  0  0  0  0  0999 V2000
  -41.9089   58.9487   66.7242 C   0  0  0  0  0  0  0  0  0  0  0  0
  -41.3425   58.7406   65.3264 C   0  0  0  0  0  0  0  0  0  0  0  0
  -39.9027   59.2102   65.2061 C   0  0  0  0  0  0  0  0  0  0  0  0
  -39.4133   59.0399   63.7774 C   0  0  0  0  0  0  0  0  0  0  0  0
  -39.7946   60.2712   62.9753 C   0  0  0  0  0  0  0  0  0  0  0  0
  -38.6687   60.7153   62.0551 C   0  0  0  0  0  0  0  0  0  0  0  0
  -39.1181   60.5777   60.6218 C   0  0  0  0  0  0  0  0  0  0  0  0
  -40.1451   61.1656   60.2300 O   0  0  0  0  0  0  0  0  0  0  0  0
  -38.4804   59.8761   59.8080 O   0  0  0  0  0  0  0  0  0  0  0  0
  -37.7059   59.4264   60.0834 H   0  0  0  0  0  0  0  0  0  0  0  0
  -42.7107   60.2418   66.6967 C   0  0  0  0  0  0  0  0  0  0  0  0
  -43.5490   60.3536   65.4459 C   0  0  0  0  0  0  0  0  0  0  0  0
  -45.0045   60.1522   65.5243 C   0  0  0  0  0  0  0  0  0  0  0  0
  -45.6012   59.6239   66.8046 C   0  0  0  0  0  0  0  0  0  0  0  0
  -47.0036   59.0771   66.5613 C   0  0  0  0  0  0  0  0  0  0  0  0
  -47.9424   60.2014   66.1243 C   0  0  0  0  0  0  0  0  0  0  0  0
  -48.4222   60.0108   64.6862 C   0  0  0  0  0  0  0  0  0  0  0  0
  -49.1257   58.6650   64.4929 C   0  0  0  0  0  0  0  0  0  0  0  0
  -50.0548   58.6486   63.2821 C   0  0  0  0  0  0  0  0  0  0  0  0
  7  8  2  0  0  0
  7  6  1  0  0  0
  7  9  1  0  0  0
  6  5  1  0  0  0
  9 10  1  0  0  0
  5  4  1  0  0  0
  4  3  1  0  0  0
  3  2  1  0  0  0
  2  1  1  0  0  0
  1 11  1  0  0  0
 11 12  1  0  0  0
 12 13  2  0  0  0
 13 14  1  0  0  0
 14 15  1  0  0  0
 15 16  1  0  0  0
 16 17  1  0  0  0
 17 18  1  0  0  0
 18 19  1  0  0  0
M  END
> <minimizedAffinity>
-6.49425

> <CNNscore>
0.6230547428

> <CNNaffinity>
5.9634881020

> <CNN_VS>
3.7155795097

> <CNNaffinity_variance>
0.2232208997

$$$$
/media/chris/experiments/cd1a-new-docking/inputs/ligands/4x6d_2_ligand.pdb


 19 18  0  0  0  0  0  0  0  0999 V2000
  -41.8124   59.0352   66.3653 C   0  0  0  0  0  0  0  0  0  0  0  0
  -41.1970   58.9655   64.9745 C   0  0  0  0  0  0  0  0  0  0  0  0
  -39.7033   59.2426   64.9846 C   0  0  0  0  0  0  0  0  0  0  0  0
  -38.9554   58.1106   64.2998 C   0  0  0  0  0  0  0  0  0  0  0  0
  -38.3631   58.6258   63.0004 C   0  0  0  0  0  0  0  0  0  0  0  0
  -37.6560   57.5239   62.2274 C   0  0  0  0  0  0  0  0  0  0  0  0
  -37.2624   58.0474   60.8686 C   0  0  0  0  0  0  0  0  0  0  0  0
  -36.2969   57.5446   60.2612 O   0  0  0  0  0  0  0  0  0  0  0  0
  -37.8856   58.9879   60.3318 O   0  0  0  0  0  0  0  0  0  0  0  0
  -38.6142   59.3789   60.7725 H   0  0  0  0  0  0  0  0  0  0  0  0
  -43.1891   59.6664   66.2169 C   0  0  0  0  0  0  0  0  0  0  0  0
  -44.2611   58.6256   65.9995 C   0  0  0  0  0  0  0  0  0  0  0  0
  -45.5480   59.0190   65.4042 C   0  0  0  0  0  0  0  0  0  0  0  0
  -45.8530   60.4852   65.2261 C   0  0  0  0  0  0  0  0  0  0  0  0
  -47.2512   60.8120   65.7392 C   0  0  0  0  0  0  0  0  0  0  0  0
  -48.0708   61.4961   64.6452 C   0  0  0  0  0  0  0  0  0  0  0  0
  -49.4105   60.7964   64.4211 C   0  0  0  0  0  0  0  0  0  0  0  0
  -49.8996   60.0823   65.6837 C   0  0  0  0  0  0  0  0  0  0  0  0
  -49.9869   58.5679   65.5139 C   0  0  0  0  0  0  0  0  0  0  0  0
  7  8  2  0  0  0
  7  6  1  0  0  0
  7  9  1  0  0  0
  6  5  1  0  0  0
  9 10  1  0  0  0
  5  4  1  0  0  0
  4  3  1  0  0  0
  3  2  1  0  0  0
  2  1  1  0  0  0
  1 11  1  0  0  0
 11 12  1  0  0  0
 12 13  2  0  0  0
 13 14  1  0  0  0
 14 15  1  0  0  0
 15 16  1  0  0  0
 16 17  1  0  0  0
 17 18  1  0  0  0
 18 19  1  0  0  0
M  END
> <minimizedAffinity>
-6.44810

> <CNNscore>
0.5842836499

> <CNNaffinity>
5.7998228073

> <CNN_VS>
3.3887417316

> <CNNaffinity_variance>
0.1834925115

$$$$
/media/chris/experiments/cd1a-new-docking/inputs/ligands/4x6d_2_ligand.pdb


 19 18  0  0  0  0  0  0  0  0999 V2000
  -37.8220   57.9208   63.1334 C   0  0  0  0  0  0  0  0  0  0  0  0
  -38.1386   58.6418   61.8304 C   0  0  0  0  0  0  0  0  0  0  0  0
  -37.1525   58.3052   60.7247 C   0  0  0  0  0  0  0  0  0  0  0  0
  -36.6612   56.8752   60.8778 C   0  0  0  0  0  0  0  0  0  0  0  0
  -35.7950   56.5206   59.6826 C   0  0  0  0  0  0  0  0  0  0  0  0
  -34.3138   56.6249   60.0093 C   0  0  0  0  0  0  0  0  0  0  0  0
  -33.7149   57.7694   59.2302 C   0  0  0  0  0  0  0  0  0  0  0  0
  -34.3585   58.2981   58.3028 O   0  0  0  0  0  0  0  0  0  0  0  0
  -32.5728   58.2032   59.4920 O   0  0  0  0  0  0  0  0  0  0  0  0
  -32.0734   57.8189   60.1855 H   0  0  0  0  0  0  0  0  0  0  0  0
  -38.9915   58.1621   64.0767 C   0  0  0  0  0  0  0  0  0  0  0  0
  -39.7403   59.4258   63.7273 C   0  0  0  0  0  0  0  0  0  0  0  0
  -40.7097   59.9855   64.6824 C   0  0  0  0  0  0  0  0  0  0  0  0
  -41.0976   59.1717   65.8914 C   0  0  0  0  0  0  0  0  0  0  0  0
  -42.6076   59.2028   66.1013 C   0  0  0  0  0  0  0  0  0  0  0  0
  -43.2222   60.3868   65.3550 C   0  0  0  0  0  0  0  0  0  0  0  0
  -44.7465   60.2946   65.3056 C   0  0  0  0  0  0  0  0  0  0  0  0
  -45.3119   59.5389   66.5109 C   0  0  0  0  0  0  0  0  0  0  0  0
  -46.8289   59.6591   66.6294 C   0  0  0  0  0  0  0  0  0  0  0  0
  7  8  2  0  0  0
  7  6  1  0  0  0
  7  9  1  0  0  0
  6  5  1  0  0  0
  9 10  1  0  0  0
  5  4  1  0  0  0
  4  3  1  0  0  0
  3  2  1  0  0  0
  2  1  1  0  0  0
  1 11  1  0  0  0
 11 12  1  0  0  0
 12 13  2  0  0  0
 13 14  1  0  0  0
 14 15  1  0  0  0
 15 16  1  0  0  0
 16 17  1  0  0  0
 17 18  1  0  0  0
 18 19  1  0  0  0
M  END
> <minimizedAffinity>
-6.21552

> <CNNscore>
0.5731918216

> <CNNaffinity>
5.5331315994

> <CNN_VS>
3.1715457439

> <CNNaffinity_variance>
0.1408887655

$$$$
