/media/chris/experiments/cd1a-new-docking/inputs/ligands/4x6d_2_ligand.pdb


 19 18  0  0  0  0  0  0  0  0999 V2000
  -46.0911   58.2165   64.8979 C   0  0  0  0  0  0  0  0  0  0  0  0
  -44.7592   57.6787   65.4026 C   0  0  0  0  0  0  0  0  0  0  0  0
  -43.5901   58.5720   65.0241 C   0  0  0  0  0  0  0  0  0  0  0  0
  -42.5681   58.6027   66.1487 C   0  0  0  0  0  0  0  0  0  0  0  0
  -41.8769   59.9543   66.1505 C   0  0  0  0  0  0  0  0  0  0  0  0
  -40.4216   59.8434   65.7248 C   0  0  0  0  0  0  0  0  0  0  0  0
  -39.8046   61.2199   65.7096 C   0  0  0  0  0  0  0  0  0  0  0  0
  -38.5885   61.3566   65.4730 O   0  0  0  0  0  0  0  0  0  0  0  0
  -40.4907   62.2393   65.9359 O   0  0  0  0  0  0  0  0  0  0  0  0
  -41.4066   62.1571   66.1159 H   0  0  0  0  0  0  0  0  0  0  0  0
  -46.8419   58.7621   66.1039 C   0  0  0  0  0  0  0  0  0  0  0  0
  -46.9394   60.2684   66.0675 C   0  0  0  0  0  0  0  0  0  0  0  0
  -48.2622   60.9129   66.0713 C   0  0  0  0  0  0  0  0  0  0  0  0
  -49.4918   60.0587   65.8901 C   0  0  0  0  0  0  0  0  0  0  0  0
  -50.4922   60.7418   64.9642 C   0  0  0  0  0  0  0  0  0  0  0  0
  -50.8056   59.8440   63.7675 C   0  0  0  0  0  0  0  0  0  0  0  0
  -49.7465   58.7585   63.5819 C   0  0  0  0  0  0  0  0  0  0  0  0
  -49.8919   58.0436   62.2361 C   0  0  0  0  0  0  0  0  0  0  0  0
  -49.9822   59.0090   61.0572 C   0  0  0  0  0  0  0  0  0  0  0  0
  7  8  2  0  0  0
  7  6  1  0  0  0
  7  9  1  0  0  0
  6  5  1  0  0  0
  9 10  1  0  0  0
  5  4  1  0  0  0
  4  3  1  0  0  0
  3  2  1  0  0  0
  2  1  1  0  0  0
  1 11  1  0  0  0
 11 12  1  0  0  0
 12 13  2  0  0  0
 13 14  1  0  0  0
 14 15  1  0  0  0
 15 16  1  0  0  0
 16 17  1  0  0  0
 17 18  1  0  0  0
 18 19  1  0  0  0
M  END
> <minimizedAffinity>
-6.46982

> <CNNscore>
0.8019359112

> <CNNaffinity>
6.1877622604

> <CNN_VS>
4.9621887207

> <CNNaffinity_variance>
0.2816351950

$$$$
/media/chris/experiments/cd1a-new-docking/inputs/ligands/4x6d_2_ligand.pdb


 19 18  0  0  0  0  0  0  0  0999 V2000
  -46.9019   60.5114   65.9279 C   0  0  0  0  0  0  0  0  0  0  0  0
  -46.0253   59.4860   66.6336 C   0  0  0  0  0  0  0  0  0  0  0  0
  -44.5429   59.7674   66.4563 C   0  0  0  0  0  0  0  0  0  0  0  0
  -44.2768   60.3202   65.0657 C   0  0  0  0  0  0  0  0  0  0  0  0
  -42.8689   59.9397   64.6446 C   0  0  0  0  0  0  0  0  0  0  0  0
  -41.9834   61.1629   64.4685 C   0  0  0  0  0  0  0  0  0  0  0  0
  -40.9695   61.2042   65.5847 C   0  0  0  0  0  0  0  0  0  0  0  0
  -40.6461   60.1544   66.1738 O   0  0  0  0  0  0  0  0  0  0  0  0
  -40.4426   62.2795   65.9412 O   0  0  0  0  0  0  0  0  0  0  0  0
  -40.6728   63.0793   65.5107 H   0  0  0  0  0  0  0  0  0  0  0  0
  -48.3495   60.1280   66.1986 C   0  0  0  0  0  0  0  0  0  0  0  0
  -48.6701   58.7487   65.6747 C   0  0  0  0  0  0  0  0  0  0  0  0
  -49.6772   58.5887   64.6138 C   0  0  0  0  0  0  0  0  0  0  0  0
  -50.5244   59.7743   64.2255 C   0  0  0  0  0  0  0  0  0  0  0  0
  -50.9068   59.7051   62.7512 C   0  0  0  0  0  0  0  0  0  0  0  0
  -50.0785   58.6364   62.0383 C   0  0  0  0  0  0  0  0  0  0  0  0
  -50.9294   57.8104   61.0749 C   0  0  0  0  0  0  0  0  0  0  0  0
  -50.2882   57.7117   59.6883 C   0  0  0  0  0  0  0  0  0  0  0  0
  -48.8144   58.1092   59.6856 C   0  0  0  0  0  0  0  0  0  0  0  0
  7  8  2  0  0  0
  7  6  1  0  0  0
  7  9  1  0  0  0
  6  5  1  0  0  0
  9 10  1  0  0  0
  5  4  1  0  0  0
  4  3  1  0  0  0
  3  2  1  0  0  0
  2  1  1  0  0  0
  1 11  1  0  0  0
 11 12  1  0  0  0
 12 13  2  0  0  0
 13 14  1  0  0  0
 14 15  1  0  0  0
 15 16  1  0  0  0
 16 17  1  0  0  0
 17 18  1  0  0  0
 18 19  1  0  0  0
M  END
> <minimizedAffinity>
-6.95200

> <CNNscore>
0.7995757461

> <CNNaffinity>
6.3244543076

> <CNN_VS>
5.0568804741

> <CNNaffinity_variance>
0.5184694529

$$$$
/media/chris/experiments/cd1a-new-docking/inputs/ligands/4x6d_2_ligand.pdb


 19 18  0  0  0  0  0  0  0  0999 V2000
  -41.7442   59.1842   66.6208 C   0  0  0  0  0  0  0  0  0  0  0  0
  -41.2663   58.9104   65.2015 C   0  0  0  0  0  0  0  0  0  0  0  0
  -39.7939   59.2328   65.0110 C   0  0  0  0  0  0  0  0  0  0  0  0
  -39.0894   58.0775   64.3188 C   0  0  0  0  0  0  0  0  0  0  0  0
  -38.5214   58.5659   62.9985 C   0  0  0  0  0  0  0  0  0  0  0  0
  -37.6592   57.5071   62.3300 C   0  0  0  0  0  0  0  0  0  0  0  0
  -37.2915   57.9724   60.9429 C   0  0  0  0  0  0  0  0  0  0  0  0
  -36.4631   57.3304   60.2680 O   0  0  0  0  0  0  0  0  0  0  0  0
  -37.7998   59.0014   60.4493 O   0  0  0  0  0  0  0  0  0  0  0  0
  -38.4244   59.4975   60.9411 H   0  0  0  0  0  0  0  0  0  0  0  0
  -43.1574   59.7397   66.5203 C   0  0  0  0  0  0  0  0  0  0  0  0
  -43.9186   59.1269   65.3693 C   0  0  0  0  0  0  0  0  0  0  0  0
  -45.3857   59.2324   65.3281 C   0  0  0  0  0  0  0  0  0  0  0  0
  -46.1150   59.7554   66.5402 C   0  0  0  0  0  0  0  0  0  0  0  0
  -47.6181   59.5417   66.3999 C   0  0  0  0  0  0  0  0  0  0  0  0
  -47.9091   58.5411   65.2816 C   0  0  0  0  0  0  0  0  0  0  0  0
  -49.3922   58.5179   64.9149 C   0  0  0  0  0  0  0  0  0  0  0  0
  -49.6174   58.8099   63.4292 C   0  0  0  0  0  0  0  0  0  0  0  0
  -50.8369   59.6921   63.1752 C   0  0  0  0  0  0  0  0  0  0  0  0
  7  8  2  0  0  0
  7  6  1  0  0  0
  7  9  1  0  0  0
  6  5  1  0  0  0
  9 10  1  0  0  0
  5  4  1  0  0  0
  4  3  1  0  0  0
  3  2  1  0  0  0
  2  1  1  0  0  0
  1 11  1  0  0  0
 11 12  1  0  0  0
 12 13  2  0  0  0
 13 14  1  0  0  0
 14 15  1  0  0  0
 15 16  1  0  0  0
 16 17  1  0  0  0
 17 18  1  0  0  0
 18 19  1  0  0  0
M  END
> <minimizedAffinity>
-6.49190

> <CNNscore>
0.7408932447

> <CNNaffinity>
6.1164150238

> <CNN_VS>
4.5316104889

> <CNNaffinity_variance>
0.3904603124

$$$$
/media/chris/experiments/cd1a-new-docking/inputs/ligands/4x6d_2_ligand.pdb


 19 18  0  0  0  0  0  0  0  0999 V2000
  -47.9402   60.1792   65.7716 C   0  0  0  0  0  0  0  0  0  0  0  0
  -46.4706   60.3507   65.4129 C   0  0  0  0  0  0  0  0  0  0  0  0
  -45.5581   59.4917   66.2717 C   0  0  0  0  0  0  0  0  0  0  0  0
  -45.5025   58.0752   65.7234 C   0  0  0  0  0  0  0  0  0  0  0  0
  -44.3053   57.9509   64.7984 C   0  0  0  0  0  0  0  0  0  0  0  0
  -43.0116   57.7598   65.5738 C   0  0  0  0  0  0  0  0  0  0  0  0
  -42.0635   58.8843   65.2387 C   0  0  0  0  0  0  0  0  0  0  0  0
  -42.4369   59.8169   64.5008 O   0  0  0  0  0  0  0  0  0  0  0  0
  -40.8965   58.9016   65.6845 O   0  0  0  0  0  0  0  0  0  0  0  0
  -40.5972   58.2095   66.2407 H   0  0  0  0  0  0  0  0  0  0  0  0
  -48.7376   61.0899   64.8493 C   0  0  0  0  0  0  0  0  0  0  0  0
  -50.2192   60.8113   64.9323 C   0  0  0  0  0  0  0  0  0  0  0  0
  -50.8819   60.0666   63.8500 C   0  0  0  0  0  0  0  0  0  0  0  0
  -50.1176   59.7882   62.5801 C   0  0  0  0  0  0  0  0  0  0  0  0
  -49.7774   58.3061   62.4685 C   0  0  0  0  0  0  0  0  0  0  0  0
  -50.1983   57.7670   61.1016 C   0  0  0  0  0  0  0  0  0  0  0  0
  -49.4868   58.4955   59.9625 C   0  0  0  0  0  0  0  0  0  0  0  0
  -48.4048   57.6260   59.3169 C   0  0  0  0  0  0  0  0  0  0  0  0
  -47.4535   58.4234   58.4286 C   0  0  0  0  0  0  0  0  0  0  0  0
  7  8  2  0  0  0
  7  6  1  0  0  0
  7  9  1  0  0  0
  6  5  1  0  0  0
  9 10  1  0  0  0
  5  4  1  0  0  0
  4  3  1  0  0  0
  3  2  1  0  0  0
  2  1  1  0  0  0
  1 11  1  0  0  0
 11 12  1  0  0  0
 12 13  2  0  0  0
 13 14  1  0  0  0
 14 15  1  0  0  0
 15 16  1  0  0  0
 16 17  1  0  0  0
 17 18  1  0  0  0
 18 19  1  0  0  0
M  END
> <minimizedAffinity>
-6.78404

> <CNNscore>
0.7342402339

> <CNNaffinity>
6.2745437622

> <CNN_VS>
4.6070222855

> <CNNaffinity_variance>
0.4827773571

$$$$
/media/chris/experiments/cd1a-new-docking/inputs/ligands/4x6d_2_ligand.pdb


 19 18  0  0  0  0  0  0  0  0999 V2000
  -50.6961   59.4281   62.7176 C   0  0  0  0  0  0  0  0  0  0  0  0
  -50.0310   58.1750   62.1651 C   0  0  0  0  0  0  0  0  0  0  0  0
  -50.8109   57.5616   61.0145 C   0  0  0  0  0  0  0  0  0  0  0  0
  -49.8708   56.8124   60.0844 C   0  0  0  0  0  0  0  0  0  0  0  0
  -49.5156   57.7110   58.9136 C   0  0  0  0  0  0  0  0  0  0  0  0
  -48.1128   57.4347   58.3965 C   0  0  0  0  0  0  0  0  0  0  0  0
  -48.2023   56.5802   57.1566 C   0  0  0  0  0  0  0  0  0  0  0  0
  -47.7929   55.4030   57.1785 O   0  0  0  0  0  0  0  0  0  0  0  0
  -48.6785   57.0307   56.0930 O   0  0  0  0  0  0  0  0  0  0  0  0
  -48.9914   57.9131   56.0565 H   0  0  0  0  0  0  0  0  0  0  0  0
  -50.0451   59.7282   64.0600 C   0  0  0  0  0  0  0  0  0  0  0  0
  -49.1928   60.9731   64.0023 C   0  0  0  0  0  0  0  0  0  0  0  0
  -48.0016   61.0805   64.8596 C   0  0  0  0  0  0  0  0  0  0  0  0
  -47.7784   60.0454   65.9334 C   0  0  0  0  0  0  0  0  0  0  0  0
  -46.3344   59.5563   65.9202 C   0  0  0  0  0  0  0  0  0  0  0  0
  -45.4382   60.5690   65.2077 C   0  0  0  0  0  0  0  0  0  0  0  0
  -43.9628   60.1836   65.3020 C   0  0  0  0  0  0  0  0  0  0  0  0
  -43.4762   60.1389   66.7528 C   0  0  0  0  0  0  0  0  0  0  0  0
  -42.0499   59.6117   66.8852 C   0  0  0  0  0  0  0  0  0  0  0  0
  7  8  2  0  0  0
  7  6  1  0  0  0
  7  9  1  0  0  0
  6  5  1  0  0  0
  9 10  1  0  0  0
  5  4  1  0  0  0
  4  3  1  0  0  0
  3  2  1  0  0  0
  2  1  1  0  0  0
  1 11  1  0  0  0
 11 12  1  0  0  0
 12 13  2  0  0  0
 13 14  1  0  0  0
 14 15  1  0  0  0
 15 16  1  0  0  0
 16 17  1  0  0  0
 17 18  1  0  0  0
 18 19  1  0  0  0
M  END
> <minimizedAffinity>
-7.19588

> <CNNscore>
0.6972247362

> <CNNaffinity>
6.3482279778

> <CNN_VS>
4.4261417389

> <CNNaffinity_variance>
0.4648109078

$$$$
/media/chris/experiments/cd1a-new-docking/inputs/ligands/4x6d_2_ligand.pdb


 19 18  0  0  0  0  0  0  0  0999 V2000
  -49.9953   58.3199   62.4080 C   0  0  0  0  0  0  0  0  0  0  0  0
  -50.7828   57.7674   61.2281 C   0  0  0  0  0  0  0  0  0  0  0  0
  -49.8849   57.1699   60.1580 C   0  0  0  0  0  0  0  0  0  0  0  0
  -49.0639   58.2622   59.4926 C   0  0  0  0  0  0  0  0  0  0  0  0
  -47.6620   57.7391   59.2368 C   0  0  0  0  0  0  0  0  0  0  0  0
  -47.2754   57.8567   57.7711 C   0  0  0  0  0  0  0  0  0  0  0  0
  -47.9408   56.7483   56.9938 C   0  0  0  0  0  0  0  0  0  0  0  0
  -47.8918   55.5753   57.4124 O   0  0  0  0  0  0  0  0  0  0  0  0
  -48.5438   56.9795   55.9242 O   0  0  0  0  0  0  0  0  0  0  0  0
  -48.5915   57.8547   55.5930 H   0  0  0  0  0  0  0  0  0  0  0  0
  -50.3855   59.7825   62.5639 C   0  0  0  0  0  0  0  0  0  0  0  0
  -50.8726   60.0856   63.9605 C   0  0  0  0  0  0  0  0  0  0  0  0
  -49.9906   60.7938   64.9017 C   0  0  0  0  0  0  0  0  0  0  0  0
  -48.5451   61.0079   64.5286 C   0  0  0  0  0  0  0  0  0  0  0  0
  -47.6633   61.0255   65.7722 C   0  0  0  0  0  0  0  0  0  0  0  0
  -47.3255   59.5983   66.2028 C   0  0  0  0  0  0  0  0  0  0  0  0
  -46.9101   58.7323   65.0145 C   0  0  0  0  0  0  0  0  0  0  0  0
  -45.8844   57.6686   65.4146 C   0  0  0  0  0  0  0  0  0  0  0  0
  -44.5619   57.8070   64.6651 C   0  0  0  0  0  0  0  0  0  0  0  0
  7  8  2  0  0  0
  7  6  1  0  0  0
  7  9  1  0  0  0
  6  5  1  0  0  0
  9 10  1  0  0  0
  5  4  1  0  0  0
  4  3  1  0  0  0
  3  2  1  0  0  0
  2  1  1  0  0  0
  1 11  1  0  0  0
 11 12  1  0  0  0
 12 13  2  0  0  0
 13 14  1  0  0  0
 14 15  1  0  0  0
 15 16  1  0  0  0
 16 17  1  0  0  0
 17 18  1  0  0  0
 18 19  1  0  0  0
M  END
> <minimizedAffinity>
-7.43668

> <CNNscore>
0.6969003081

> <CNNaffinity>
6.3305482864

> <CNN_VS>
4.4117612839

> <CNNaffinity_variance>
0.2621802986

$$$$
/media/chris/experiments/cd1a-new-docking/inputs/ligands/4x6d_2_ligand.pdb


 19 18  0  0  0  0  0  0  0  0999 V2000
  -47.0059   57.3979   65.8376 C   0  0  0  0  0  0  0  0  0  0  0  0
  -45.9129   58.2564   65.2161 C   0  0  0  0  0  0  0  0  0  0  0  0
  -44.6522   57.4642   64.9139 C   0  0  0  0  0  0  0  0  0  0  0  0
  -43.4354   58.3730   64.9721 C   0  0  0  0  0  0  0  0  0  0  0  0
  -42.7474   58.1910   66.3130 C   0  0  0  0  0  0  0  0  0  0  0  0
  -41.5488   59.1146   66.4612 C   0  0  0  0  0  0  0  0  0  0  0  0
  -42.0356   60.5293   66.6541 C   0  0  0  0  0  0  0  0  0  0  0  0
  -41.7934   61.3962   65.7917 O   0  0  0  0  0  0  0  0  0  0  0  0
  -42.6801   60.8590   67.6724 O   0  0  0  0  0  0  0  0  0  0  0  0
  -42.8721   60.2217   68.3320 H   0  0  0  0  0  0  0  0  0  0  0  0
  -48.3201   57.8004   65.1843 C   0  0  0  0  0  0  0  0  0  0  0  0
  -48.1319   58.9277   64.1977 C   0  0  0  0  0  0  0  0  0  0  0  0
  -49.1636   59.1850   63.1804 C   0  0  0  0  0  0  0  0  0  0  0  0
  -50.2794   58.1861   63.0024 C   0  0  0  0  0  0  0  0  0  0  0  0
  -50.7163   58.1189   61.5432 C   0  0  0  0  0  0  0  0  0  0  0  0
  -49.6069   58.6452   60.6330 C   0  0  0  0  0  0  0  0  0  0  0  0
  -49.7066   58.0620   59.2243 C   0  0  0  0  0  0  0  0  0  0  0  0
  -48.5216   57.1490   58.8994 C   0  0  0  0  0  0  0  0  0  0  0  0
  -47.1728   57.8440   59.0662 C   0  0  0  0  0  0  0  0  0  0  0  0
  7  8  2  0  0  0
  7  6  1  0  0  0
  7  9  1  0  0  0
  6  5  1  0  0  0
  9 10  1  0  0  0
  5  4  1  0  0  0
  4  3  1  0  0  0
  3  2  1  0  0  0
  2  1  1  0  0  0
  1 11  1  0  0  0
 11 12  1  0  0  0
 12 13  2  0  0  0
 13 14  1  0  0  0
 14 15  1  0  0  0
 15 16  1  0  0  0
 16 17  1  0  0  0
 17 18  1  0  0  0
 18 19  1  0  0  0
M  END
> <minimizedAffinity>
-6.61972

> <CNNscore>
0.6782119870

> <CNNaffinity>
6.2899756432

> <CNN_VS>
4.2659368515

> <CNNaffinity_variance>
0.4175465703

$$$$
/media/chris/experiments/cd1a-new-docking/inputs/ligands/4x6d_2_ligand.pdb


 19 18  0  0  0  0  0  0  0  0999 V2000
  -44.9499   57.4226   65.3060 C   0  0  0  0  0  0  0  0  0  0  0  0
  -43.8955   58.5154   65.4132 C   0  0  0  0  0  0  0  0  0  0  0  0
  -42.5423   57.9778   65.8471 C   0  0  0  0  0  0  0  0  0  0  0  0
  -41.8433   58.9825   66.7482 C   0  0  0  0  0  0  0  0  0  0  0  0
  -40.7695   59.6984   65.9490 C   0  0  0  0  0  0  0  0  0  0  0  0
  -41.2014   61.1021   65.5558 C   0  0  0  0  0  0  0  0  0  0  0  0
  -41.5102   61.1292   64.0795 C   0  0  0  0  0  0  0  0  0  0  0  0
  -42.5095   61.7461   63.6617 O   0  0  0  0  0  0  0  0  0  0  0  0
  -40.7820   60.5369   63.2549 O   0  0  0  0  0  0  0  0  0  0  0  0
  -40.0263   60.0677   63.5495 H   0  0  0  0  0  0  0  0  0  0  0  0
  -45.8703   57.5659   66.5094 C   0  0  0  0  0  0  0  0  0  0  0  0
  -46.2602   59.0050   66.7470 C   0  0  0  0  0  0  0  0  0  0  0  0
  -47.6038   59.4681   66.3650 C   0  0  0  0  0  0  0  0  0  0  0  0
  -48.4851   58.5581   65.5467 C   0  0  0  0  0  0  0  0  0  0  0  0
  -49.9457   58.9822   65.6531 C   0  0  0  0  0  0  0  0  0  0  0  0
  -50.1412   60.3685   65.0397 C   0  0  0  0  0  0  0  0  0  0  0  0
  -49.8778   60.3635   63.5347 C   0  0  0  0  0  0  0  0  0  0  0  0
  -50.9490   59.5814   62.7704 C   0  0  0  0  0  0  0  0  0  0  0  0
  -50.3751   58.4166   61.9680 C   0  0  0  0  0  0  0  0  0  0  0  0
  7  8  2  0  0  0
  7  6  1  0  0  0
  7  9  1  0  0  0
  6  5  1  0  0  0
  9 10  1  0  0  0
  5  4  1  0  0  0
  4  3  1  0  0  0
  3  2  1  0  0  0
  2  1  1  0  0  0
  1 11  1  0  0  0
 11 12  1  0  0  0
 12 13  2  0  0  0
 13 14  1  0  0  0
 14 15  1  0  0  0
 15 16  1  0  0  0
 16 17  1  0  0  0
 17 18  1  0  0  0
 18 19  1  0  0  0
M  END
> <minimizedAffinity>
-6.29329

> <CNNscore>
0.6659380794

> <CNNaffinity>
6.0896310806

> <CNN_VS>
4.0553174019

> <CNNaffinity_variance>
0.2486864328

$$$$
/media/chris/experiments/cd1a-new-docking/inputs/ligands/4x6d_2_ligand.pdb


 19 18  0  0  0  0  0  0  0  0999 V2000
  -47.7183   59.1794   65.9019 C   0  0  0  0  0  0  0  0  0  0  0  0
  -47.6571   60.5655   65.2752 C   0  0  0  0  0  0  0  0  0  0  0  0
  -48.9257   60.9177   64.5171 C   0  0  0  0  0  0  0  0  0  0  0  0
  -49.8782   59.7333   64.5100 C   0  0  0  0  0  0  0  0  0  0  0  0
  -50.4044   59.5317   63.1004 C   0  0  0  0  0  0  0  0  0  0  0  0
  -49.8362   58.2746   62.4614 C   0  0  0  0  0  0  0  0  0  0  0  0
  -50.2557   58.2231   61.0133 C   0  0  0  0  0  0  0  0  0  0  0  0
  -51.1765   57.4624   60.6566 O   0  0  0  0  0  0  0  0  0  0  0  0
  -49.6925   58.9299   60.1507 O   0  0  0  0  0  0  0  0  0  0  0  0
  -48.9982   59.5080   60.3992 H   0  0  0  0  0  0  0  0  0  0  0  0
  -46.2929   58.7843   66.2598 C   0  0  0  0  0  0  0  0  0  0  0  0
  -45.7040   57.8349   65.2442 C   0  0  0  0  0  0  0  0  0  0  0  0
  -44.2432   57.7482   65.0897 C   0  0  0  0  0  0  0  0  0  0  0  0
  -43.3730   58.7622   65.7888 C   0  0  0  0  0  0  0  0  0  0  0  0
  -41.9222   58.2947   65.8259 C   0  0  0  0  0  0  0  0  0  0  0  0
  -41.1010   59.0307   64.7675 C   0  0  0  0  0  0  0  0  0  0  0  0
  -39.6177   59.0742   65.1315 C   0  0  0  0  0  0  0  0  0  0  0  0
  -38.7738   58.2096   64.1915 C   0  0  0  0  0  0  0  0  0  0  0  0
  -37.3747   57.9321   64.7351 C   0  0  0  0  0  0  0  0  0  0  0  0
  7  8  2  0  0  0
  7  6  1  0  0  0
  7  9  1  0  0  0
  6  5  1  0  0  0
  9 10  1  0  0  0
  5  4  1  0  0  0
  4  3  1  0  0  0
  3  2  1  0  0  0
  2  1  1  0  0  0
  1 11  1  0  0  0
 11 12  1  0  0  0
 12 13  2  0  0  0
 13 14  1  0  0  0
 14 15  1  0  0  0
 15 16  1  0  0  0
 16 17  1  0  0  0
 17 18  1  0  0  0
 18 19  1  0  0  0
M  END
> <minimizedAffinity>
-6.22274

> <CNNscore>
0.6454210877

> <CNNaffinity>
5.9823369980

> <CNN_VS>
3.8611264229

> <CNNaffinity_variance>
0.6420130730

$$$$
