/media/chris/experiments/cd1a-new-docking/inputs/ligands/4x6d_2_ligand.pdb


 19 18  0  0  0  0  0  0  0  0999 V2000
  -45.8488   57.6252   66.4076 C   0  0  0  0  0  0  0  0  0  0  0  0
  -45.0922   57.9817   65.1354 C   0  0  0  0  0  0  0  0  0  0  0  0
  -43.6648   57.4615   65.1423 C   0  0  0  0  0  0  0  0  0  0  0  0
  -42.8619   58.1478   66.2351 C   0  0  0  0  0  0  0  0  0  0  0  0
  -42.5977   59.5853   65.8243 C   0  0  0  0  0  0  0  0  0  0  0  0
  -41.1773   60.0142   66.1560 C   0  0  0  0  0  0  0  0  0  0  0  0
  -40.8550   61.2812   65.4035 C   0  0  0  0  0  0  0  0  0  0  0  0
  -41.2664   61.4367   64.2371 O   0  0  0  0  0  0  0  0  0  0  0  0
  -40.1732   62.1886   65.9258 O   0  0  0  0  0  0  0  0  0  0  0  0
  -39.8549   62.0904   66.8015 H   0  0  0  0  0  0  0  0  0  0  0  0
  -46.3566   58.9276   67.0089 C   0  0  0  0  0  0  0  0  0  0  0  0
  -46.4453   60.0240   65.9746 C   0  0  0  0  0  0  0  0  0  0  0  0
  -47.7609   60.5649   65.5977 C   0  0  0  0  0  0  0  0  0  0  0  0
  -49.0052   59.8668   66.0863 C   0  0  0  0  0  0  0  0  0  0  0  0
  -49.7394   59.1989   64.9288 C   0  0  0  0  0  0  0  0  0  0  0  0
  -50.2791   60.2545   63.9640 C   0  0  0  0  0  0  0  0  0  0  0  0
  -50.9726   59.6187   62.7601 C   0  0  0  0  0  0  0  0  0  0  0  0
  -50.1273   58.5047   62.1375 C   0  0  0  0  0  0  0  0  0  0  0  0
  -50.8896   57.6933   61.0931 C   0  0  0  0  0  0  0  0  0  0  0  0
  7  8  2  0  0  0
  7  6  1  0  0  0
  7  9  1  0  0  0
  6  5  1  0  0  0
  9 10  1  0  0  0
  5  4  1  0  0  0
  4  3  1  0  0  0
  3  2  1  0  0  0
  2  1  1  0  0  0
  1 11  1  0  0  0
 11 12  1  0  0  0
 12 13  2  0  0  0
 13 14  1  0  0  0
 14 15  1  0  0  0
 15 16  1  0  0  0
 16 17  1  0  0  0
 17 18  1  0  0  0
 18 19  1  0  0  0
M  END
> <minimizedAffinity>
-6.63233

> <CNNscore>
0.8608358502

> <CNNaffinity>
6.3241057396

> <CNN_VS>
5.4440169334

> <CNNaffinity_variance>
0.3913715482

$$$$
/media/chris/experiments/cd1a-new-docking/inputs/ligands/4x6d_2_ligand.pdb


 19 18  0  0  0  0  0  0  0  0999 V2000
  -44.7430   57.7098   64.7018 C   0  0  0  0  0  0  0  0  0  0  0  0
  -43.9873   57.8301   66.0180 C   0  0  0  0  0  0  0  0  0  0  0  0
  -42.4950   57.5960   65.8555 C   0  0  0  0  0  0  0  0  0  0  0  0
  -41.7226   58.8447   66.2479 C   0  0  0  0  0  0  0  0  0  0  0  0
  -40.6024   59.0666   65.2476 C   0  0  0  0  0  0  0  0  0  0  0  0
  -40.6634   60.4555   64.6321 C   0  0  0  0  0  0  0  0  0  0  0  0
  -40.0118   61.4410   65.5700 C   0  0  0  0  0  0  0  0  0  0  0  0
  -38.8416   61.2547   65.9573 O   0  0  0  0  0  0  0  0  0  0  0  0
  -40.6256   62.4502   65.9771 O   0  0  0  0  0  0  0  0  0  0  0  0
  -41.5059   62.6077   65.6973 H   0  0  0  0  0  0  0  0  0  0  0  0
  -45.9781   58.5922   64.8100 C   0  0  0  0  0  0  0  0  0  0  0  0
  -47.0886   57.9091   65.5714 C   0  0  0  0  0  0  0  0  0  0  0  0
  -48.4593   57.9314   65.0364 C   0  0  0  0  0  0  0  0  0  0  0  0
  -48.7689   58.8186   63.8568 C   0  0  0  0  0  0  0  0  0  0  0  0
  -50.1658   58.5314   63.3172 C   0  0  0  0  0  0  0  0  0  0  0  0
  -50.2649   58.9542   61.8516 C   0  0  0  0  0  0  0  0  0  0  0  0
  -50.7849   57.8201   60.9696 C   0  0  0  0  0  0  0  0  0  0  0  0
  -50.3388   57.9790   59.5140 C   0  0  0  0  0  0  0  0  0  0  0  0
  -48.8272   58.1342   59.3692 C   0  0  0  0  0  0  0  0  0  0  0  0
  7  8  2  0  0  0
  7  6  1  0  0  0
  7  9  1  0  0  0
  6  5  1  0  0  0
  9 10  1  0  0  0
  5  4  1  0  0  0
  4  3  1  0  0  0
  3  2  1  0  0  0
  2  1  1  0  0  0
  1 11  1  0  0  0
 11 12  1  0  0  0
 12 13  2  0  0  0
 13 14  1  0  0  0
 14 15  1  0  0  0
 15 16  1  0  0  0
 16 17  1  0  0  0
 17 18  1  0  0  0
 18 19  1  0  0  0
M  END
> <minimizedAffinity>
-6.89695

> <CNNscore>
0.8196575046

> <CNNaffinity>
6.2664017677

> <CNN_VS>
5.1363034248

> <CNNaffinity_variance>
0.2716537118

$$$$
/media/chris/experiments/cd1a-new-docking/inputs/ligands/4x6d_2_ligand.pdb


 19 18  0  0  0  0  0  0  0  0999 V2000
  -47.7843   58.5022   65.6274 C   0  0  0  0  0  0  0  0  0  0  0  0
  -46.8768   57.3506   66.0375 C   0  0  0  0  0  0  0  0  0  0  0  0
  -45.4127   57.7534   66.0883 C   0  0  0  0  0  0  0  0  0  0  0  0
  -44.9568   58.2459   64.7247 C   0  0  0  0  0  0  0  0  0  0  0  0
  -43.5790   58.8688   64.8604 C   0  0  0  0  0  0  0  0  0  0  0  0
  -43.6510   60.3858   64.9314 C   0  0  0  0  0  0  0  0  0  0  0  0
  -42.3506   60.9662   64.4336 C   0  0  0  0  0  0  0  0  0  0  0  0
  -41.6349   61.6420   65.1984 O   0  0  0  0  0  0  0  0  0  0  0  0
  -41.9705   60.7877   63.2569 O   0  0  0  0  0  0  0  0  0  0  0  0
  -42.4946   60.2826   62.6668 H   0  0  0  0  0  0  0  0  0  0  0  0
  -48.6594   58.0013   64.4876 C   0  0  0  0  0  0  0  0  0  0  0  0
  -49.6738   59.0366   64.0648 C   0  0  0  0  0  0  0  0  0  0  0  0
  -50.3464   58.9077   62.7623 C   0  0  0  0  0  0  0  0  0  0  0  0
  -49.8526   57.8714   61.7843 C   0  0  0  0  0  0  0  0  0  0  0  0
  -50.8911   57.6163   60.6975 C   0  0  0  0  0  0  0  0  0  0  0  0
  -50.3972   58.1559   59.3553 C   0  0  0  0  0  0  0  0  0  0  0  0
  -49.1575   57.4082   58.8667 C   0  0  0  0  0  0  0  0  0  0  0  0
  -47.9880   58.3581   58.5964 C   0  0  0  0  0  0  0  0  0  0  0  0
  -46.6292   57.7248   58.8841 C   0  0  0  0  0  0  0  0  0  0  0  0
  7  8  2  0  0  0
  7  6  1  0  0  0
  7  9  1  0  0  0
  6  5  1  0  0  0
  9 10  1  0  0  0
  5  4  1  0  0  0
  4  3  1  0  0  0
  3  2  1  0  0  0
  2  1  1  0  0  0
  1 11  1  0  0  0
 11 12  1  0  0  0
 12 13  2  0  0  0
 13 14  1  0  0  0
 14 15  1  0  0  0
 15 16  1  0  0  0
 16 17  1  0  0  0
 17 18  1  0  0  0
 18 19  1  0  0  0
M  END
> <minimizedAffinity>
-6.87974

> <CNNscore>
0.8042904139

> <CNNaffinity>
6.4503035545

> <CNN_VS>
5.1879172325

> <CNNaffinity_variance>
0.3848773241

$$$$
/media/chris/experiments/cd1a-new-docking/inputs/ligands/4x6d_2_ligand.pdb


 19 18  0  0  0  0  0  0  0  0999 V2000
  -46.6516   60.9503   65.2012 C   0  0  0  0  0  0  0  0  0  0  0  0
  -46.4366   59.4451   65.2793 C   0  0  0  0  0  0  0  0  0  0  0  0
  -44.9662   59.0647   65.2411 C   0  0  0  0  0  0  0  0  0  0  0  0
  -44.1479   60.0521   66.0567 C   0  0  0  0  0  0  0  0  0  0  0  0
  -42.7229   59.5400   66.1662 C   0  0  0  0  0  0  0  0  0  0  0  0
  -41.8188   60.5368   66.8737 C   0  0  0  0  0  0  0  0  0  0  0  0
  -40.9075   61.1836   65.8604 C   0  0  0  0  0  0  0  0  0  0  0  0
  -40.4755   60.5216   64.8966 O   0  0  0  0  0  0  0  0  0  0  0  0
  -40.5671   62.3810   65.9673 O   0  0  0  0  0  0  0  0  0  0  0  0
  -40.8815   62.8951   66.6847 H   0  0  0  0  0  0  0  0  0  0  0  0
  -48.1520   61.1861   65.1055 C   0  0  0  0  0  0  0  0  0  0  0  0
  -48.9157   60.3366   66.0928 C   0  0  0  0  0  0  0  0  0  0  0  0
  -50.0702   59.5476   65.6346 C   0  0  0  0  0  0  0  0  0  0  0  0
  -50.6014   59.7714   64.2410 C   0  0  0  0  0  0  0  0  0  0  0  0
  -50.1369   58.6638   63.3017 C   0  0  0  0  0  0  0  0  0  0  0  0
  -50.5536   58.9779   61.8650 C   0  0  0  0  0  0  0  0  0  0  0  0
  -50.7816   57.7052   61.0510 C   0  0  0  0  0  0  0  0  0  0  0  0
  -50.2738   57.8483   59.6141 C   0  0  0  0  0  0  0  0  0  0  0  0
  -48.7542   57.9667   59.5298 C   0  0  0  0  0  0  0  0  0  0  0  0
  7  8  2  0  0  0
  7  6  1  0  0  0
  7  9  1  0  0  0
  6  5  1  0  0  0
  9 10  1  0  0  0
  5  4  1  0  0  0
  4  3  1  0  0  0
  3  2  1  0  0  0
  2  1  1  0  0  0
  1 11  1  0  0  0
 11 12  1  0  0  0
 12 13  2  0  0  0
 13 14  1  0  0  0
 14 15  1  0  0  0
 15 16  1  0  0  0
 16 17  1  0  0  0
 17 18  1  0  0  0
 18 19  1  0  0  0
M  END
> <minimizedAffinity>
-6.79262

> <CNNscore>
0.7839160562

> <CNNaffinity>
6.2105164528

> <CNN_VS>
4.8685235977

> <CNNaffinity_variance>
0.5843654871

$$$$
/media/chris/experiments/cd1a-new-docking/inputs/ligands/4x6d_2_ligand.pdb


 19 18  0  0  0  0  0  0  0  0999 V2000
  -46.6870   58.2924   66.6194 C   0  0  0  0  0  0  0  0  0  0  0  0
  -45.7305   59.4726   66.7188 C   0  0  0  0  0  0  0  0  0  0  0  0
  -45.5550   60.1926   65.3925 C   0  0  0  0  0  0  0  0  0  0  0  0
  -44.0896   60.5265   65.1670 C   0  0  0  0  0  0  0  0  0  0  0  0
  -43.2724   59.9604   66.3144 C   0  0  0  0  0  0  0  0  0  0  0  0
  -42.3730   61.0148   66.9395 C   0  0  0  0  0  0  0  0  0  0  0  0
  -41.1248   61.1581   66.1045 C   0  0  0  0  0  0  0  0  0  0  0  0
  -40.6127   60.1553   65.5696 O   0  0  0  0  0  0  0  0  0  0  0  0
  -40.5821   62.2709   65.9373 O   0  0  0  0  0  0  0  0  0  0  0  0
  -40.9520   63.0364   66.3311 H   0  0  0  0  0  0  0  0  0  0  0  0
  -47.3820   58.3891   65.2690 C   0  0  0  0  0  0  0  0  0  0  0  0
  -48.8563   58.0811   65.3754 C   0  0  0  0  0  0  0  0  0  0  0  0
  -49.7947   58.6677   64.4055 C   0  0  0  0  0  0  0  0  0  0  0  0
  -49.2986   59.7349   63.4624 C   0  0  0  0  0  0  0  0  0  0  0  0
  -50.2103   59.8462   62.2453 C   0  0  0  0  0  0  0  0  0  0  0  0
  -50.5967   58.4550   61.7437 C   0  0  0  0  0  0  0  0  0  0  0  0
  -50.1005   58.2090   60.3197 C   0  0  0  0  0  0  0  0  0  0  0  0
  -48.6032   57.8929   60.2840 C   0  0  0  0  0  0  0  0  0  0  0  0
  -47.9663   58.1848   58.9278 C   0  0  0  0  0  0  0  0  0  0  0  0
  7  8  2  0  0  0
  7  6  1  0  0  0
  7  9  1  0  0  0
  6  5  1  0  0  0
  9 10  1  0  0  0
  5  4  1  0  0  0
  4  3  1  0  0  0
  3  2  1  0  0  0
  2  1  1  0  0  0
  1 11  1  0  0  0
 11 12  1  0  0  0
 12 13  2  0  0  0
 13 14  1  0  0  0
 14 15  1  0  0  0
 15 16  1  0  0  0
 16 17  1  0  0  0
 17 18  1  0  0  0
 18 19  1  0  0  0
M  END
> <minimizedAffinity>
-6.77210

> <CNNscore>
0.7550700903

> <CNNaffinity>
6.2478675842

> <CNN_VS>
4.7175779343

> <CNNaffinity_variance>
0.5201866031

$$$$
/media/chris/experiments/cd1a-new-docking/inputs/ligands/4x6d_2_ligand.pdb


 19 18  0  0  0  0  0  0  0  0999 V2000
  -48.1202   60.9970   65.0372 C   0  0  0  0  0  0  0  0  0  0  0  0
  -49.4492   60.8049   64.3198 C   0  0  0  0  0  0  0  0  0  0  0  0
  -49.5188   59.4870   63.5671 C   0  0  0  0  0  0  0  0  0  0  0  0
  -50.7299   59.4707   62.6491 C   0  0  0  0  0  0  0  0  0  0  0  0
  -50.6138   58.2916   61.6999 C   0  0  0  0  0  0  0  0  0  0  0  0
  -49.9039   58.6738   60.4108 C   0  0  0  0  0  0  0  0  0  0  0  0
  -49.6452   57.4277   59.6009 C   0  0  0  0  0  0  0  0  0  0  0  0
  -49.3906   57.5156   58.3838 O   0  0  0  0  0  0  0  0  0  0  0  0
  -49.6847   56.2947   60.1259 O   0  0  0  0  0  0  0  0  0  0  0  0
  -49.8744   56.2080   61.0393 H   0  0  0  0  0  0  0  0  0  0  0  0
  -47.5110   59.6163   65.2330 C   0  0  0  0  0  0  0  0  0  0  0  0
  -46.7000   59.5380   66.5042 C   0  0  0  0  0  0  0  0  0  0  0  0
  -45.2672   59.8726   66.4757 C   0  0  0  0  0  0  0  0  0  0  0  0
  -44.5901   60.0734   65.1432 C   0  0  0  0  0  0  0  0  0  0  0  0
  -43.0850   60.2390   65.3219 C   0  0  0  0  0  0  0  0  0  0  0  0
  -42.3857   58.8846   65.2078 C   0  0  0  0  0  0  0  0  0  0  0  0
  -40.9111   58.9746   65.5978 C   0  0  0  0  0  0  0  0  0  0  0  0
  -40.0183   59.2676   64.3894 C   0  0  0  0  0  0  0  0  0  0  0  0
  -39.0743   58.1157   64.0546 C   0  0  0  0  0  0  0  0  0  0  0  0
  7  8  2  0  0  0
  7  6  1  0  0  0
  7  9  1  0  0  0
  6  5  1  0  0  0
  9 10  1  0  0  0
  5  4  1  0  0  0
  4  3  1  0  0  0
  3  2  1  0  0  0
  2  1  1  0  0  0
  1 11  1  0  0  0
 11 12  1  0  0  0
 12 13  2  0  0  0
 13 14  1  0  0  0
 14 15  1  0  0  0
 15 16  1  0  0  0
 16 17  1  0  0  0
 17 18  1  0  0  0
 18 19  1  0  0  0
M  END
> <minimizedAffinity>
-6.47681

> <CNNscore>
0.6741255522

> <CNNaffinity>
6.1496315002

> <CNN_VS>
4.1456236839

> <CNNaffinity_variance>
0.4889245033

$$$$
/media/chris/experiments/cd1a-new-docking/inputs/ligands/4x6d_2_ligand.pdb


 19 18  0  0  0  0  0  0  0  0999 V2000
  -43.9715   59.0747   64.8112 C   0  0  0  0  0  0  0  0  0  0  0  0
  -42.7434   59.9730   64.8630 C   0  0  0  0  0  0  0  0  0  0  0  0
  -41.9730   59.8306   66.1647 C   0  0  0  0  0  0  0  0  0  0  0  0
  -40.4976   59.6040   65.8786 C   0  0  0  0  0  0  0  0  0  0  0  0
  -40.3358   59.1762   64.4310 C   0  0  0  0  0  0  0  0  0  0  0  0
  -39.2030   58.1762   64.2623 C   0  0  0  0  0  0  0  0  0  0  0  0
  -38.5957   58.3438   62.8916 C   0  0  0  0  0  0  0  0  0  0  0  0
  -37.9283   57.4199   62.3869 O   0  0  0  0  0  0  0  0  0  0  0  0
  -38.7436   59.4015   62.2431 O   0  0  0  0  0  0  0  0  0  0  0  0
  -39.2419   60.1074   62.6053 H   0  0  0  0  0  0  0  0  0  0  0  0
  -44.8625   59.4630   65.9821 C   0  0  0  0  0  0  0  0  0  0  0  0
  -45.7974   58.3424   66.3692 C   0  0  0  0  0  0  0  0  0  0  0  0
  -47.1384   58.2720   65.7673 C   0  0  0  0  0  0  0  0  0  0  0  0
  -47.6329   59.4364   64.9464 C   0  0  0  0  0  0  0  0  0  0  0  0
  -48.6418   60.2636   65.7355 C   0  0  0  0  0  0  0  0  0  0  0  0
  -49.5593   61.0300   64.7829 C   0  0  0  0  0  0  0  0  0  0  0  0
  -50.8384   60.2509   64.4805 C   0  0  0  0  0  0  0  0  0  0  0  0
  -50.9739   59.9336   62.9891 C   0  0  0  0  0  0  0  0  0  0  0  0
  -50.3821   58.5775   62.6138 C   0  0  0  0  0  0  0  0  0  0  0  0
  7  8  2  0  0  0
  7  6  1  0  0  0
  7  9  1  0  0  0
  6  5  1  0  0  0
  9 10  1  0  0  0
  5  4  1  0  0  0
  4  3  1  0  0  0
  3  2  1  0  0  0
  2  1  1  0  0  0
  1 11  1  0  0  0
 11 12  1  0  0  0
 12 13  2  0  0  0
 13 14  1  0  0  0
 14 15  1  0  0  0
 15 16  1  0  0  0
 16 17  1  0  0  0
 17 18  1  0  0  0
 18 19  1  0  0  0
M  END
> <minimizedAffinity>
-6.13852

> <CNNscore>
0.6494428515

> <CNNaffinity>
6.0904207230

> <CNN_VS>
3.9553802013

> <CNNaffinity_variance>
0.3472729623

$$$$
/media/chris/experiments/cd1a-new-docking/inputs/ligands/4x6d_2_ligand.pdb


 19 18  0  0  0  0  0  0  0  0999 V2000
  -41.9047   58.9052   66.7297 C   0  0  0  0  0  0  0  0  0  0  0  0
  -41.4139   58.6403   65.3131 C   0  0  0  0  0  0  0  0  0  0  0  0
  -39.9748   59.0802   65.1041 C   0  0  0  0  0  0  0  0  0  0  0  0
  -39.2272   58.0505   64.2730 C   0  0  0  0  0  0  0  0  0  0  0  0
  -38.7654   58.7005   62.9811 C   0  0  0  0  0  0  0  0  0  0  0  0
  -37.7933   57.8131   62.2200 C   0  0  0  0  0  0  0  0  0  0  0  0
  -36.6911   58.6672   61.6443 C   0  0  0  0  0  0  0  0  0  0  0  0
  -36.5149   59.8270   62.0658 O   0  0  0  0  0  0  0  0  0  0  0  0
  -35.9437   58.2366   60.7405 O   0  0  0  0  0  0  0  0  0  0  0  0
  -36.0603   57.3674   60.4106 H   0  0  0  0  0  0  0  0  0  0  0  0
  -42.6870   60.2101   66.6981 C   0  0  0  0  0  0  0  0  0  0  0  0
  -43.3284   60.4452   65.3516 C   0  0  0  0  0  0  0  0  0  0  0  0
  -44.7850   60.2972   65.2030 C   0  0  0  0  0  0  0  0  0  0  0  0
  -45.5787   59.7025   66.3391 C   0  0  0  0  0  0  0  0  0  0  0  0
  -47.0476   60.0984   66.2369 C   0  0  0  0  0  0  0  0  0  0  0  0
  -47.9059   58.8733   65.9225 C   0  0  0  0  0  0  0  0  0  0  0  0
  -48.0911   58.6834   64.4178 C   0  0  0  0  0  0  0  0  0  0  0  0
  -49.5694   58.5879   64.0324 C   0  0  0  0  0  0  0  0  0  0  0  0
  -50.1563   59.9263   63.5914 C   0  0  0  0  0  0  0  0  0  0  0  0
  7  8  2  0  0  0
  7  6  1  0  0  0
  7  9  1  0  0  0
  6  5  1  0  0  0
  9 10  1  0  0  0
  5  4  1  0  0  0
  4  3  1  0  0  0
  3  2  1  0  0  0
  2  1  1  0  0  0
  1 11  1  0  0  0
 11 12  1  0  0  0
 12 13  2  0  0  0
 13 14  1  0  0  0
 14 15  1  0  0  0
 15 16  1  0  0  0
 16 17  1  0  0  0
 17 18  1  0  0  0
 18 19  1  0  0  0
M  END
> <minimizedAffinity>
-6.35676

> <CNNscore>
0.6431431174

> <CNNaffinity>
5.9709515572

> <CNN_VS>
3.8401763439

> <CNNaffinity_variance>
0.2644131482

$$$$
/media/chris/experiments/cd1a-new-docking/inputs/ligands/4x6d_2_ligand.pdb


 19 18  0  0  0  0  0  0  0  0999 V2000
  -49.7047   58.6980   64.5611 C   0  0  0  0  0  0  0  0  0  0  0  0
  -50.1347   59.6795   63.4795 C   0  0  0  0  0  0  0  0  0  0  0  0
  -50.8151   58.9924   62.3076 C   0  0  0  0  0  0  0  0  0  0  0  0
  -49.8377   58.0653   61.6039 C   0  0  0  0  0  0  0  0  0  0  0  0
  -49.5675   58.6002   60.2091 C   0  0  0  0  0  0  0  0  0  0  0  0
  -49.4852   57.4815   59.1828 C   0  0  0  0  0  0  0  0  0  0  0  0
  -48.0771   56.9413   59.1522 C   0  0  0  0  0  0  0  0  0  0  0  0
  -47.8778   55.7283   58.9454 O   0  0  0  0  0  0  0  0  0  0  0  0
  -47.0929   57.6888   59.3359 O   0  0  0  0  0  0  0  0  0  0  0  0
  -47.2222   58.6034   59.4928 H   0  0  0  0  0  0  0  0  0  0  0  0
  -49.2469   59.5193   65.7576 C   0  0  0  0  0  0  0  0  0  0  0  0
  -48.5586   60.7936   65.3309 C   0  0  0  0  0  0  0  0  0  0  0  0
  -47.0908   60.8829   65.3881 C   0  0  0  0  0  0  0  0  0  0  0  0
  -46.3183   59.7852   66.0757 C   0  0  0  0  0  0  0  0  0  0  0  0
  -45.6973   58.8400   65.0531 C   0  0  0  0  0  0  0  0  0  0  0  0
  -44.1833   58.7666   65.2503 C   0  0  0  0  0  0  0  0  0  0  0  0
  -43.5572   60.1571   65.3461 C   0  0  0  0  0  0  0  0  0  0  0  0
  -42.8614   60.3779   66.6915 C   0  0  0  0  0  0  0  0  0  0  0  0
  -41.7718   59.3467   66.9735 C   0  0  0  0  0  0  0  0  0  0  0  0
  7  8  2  0  0  0
  7  6  1  0  0  0
  7  9  1  0  0  0
  6  5  1  0  0  0
  9 10  1  0  0  0
  5  4  1  0  0  0
  4  3  1  0  0  0
  3  2  1  0  0  0
  2  1  1  0  0  0
  1 11  1  0  0  0
 11 12  1  0  0  0
 12 13  2  0  0  0
 13 14  1  0  0  0
 14 15  1  0  0  0
 15 16  1  0  0  0
 16 17  1  0  0  0
 17 18  1  0  0  0
 18 19  1  0  0  0
M  END
> <minimizedAffinity>
-6.71608

> <CNNscore>
0.6427970529

> <CNNaffinity>
6.1009378433

> <CNN_VS>
3.9216649532

> <CNNaffinity_variance>
0.4952813983

$$$$
