/media/chris/experiments/cd1a-new-docking/inputs/ligands/4x6d_2_ligand.pdb


 19 18  0  0  0  0  0  0  0  0999 V2000
  -46.1866   58.4610   65.8349 C   0  0  0  0  0  0  0  0  0  0  0  0
  -44.9395   59.1935   65.3594 C   0  0  0  0  0  0  0  0  0  0  0  0
  -43.8600   58.2448   64.8665 C   0  0  0  0  0  0  0  0  0  0  0  0
  -42.7880   58.0727   65.9301 C   0  0  0  0  0  0  0  0  0  0  0  0
  -42.4873   59.4250   66.5508 C   0  0  0  0  0  0  0  0  0  0  0  0
  -41.0737   59.8878   66.2358 C   0  0  0  0  0  0  0  0  0  0  0  0
  -41.1317   61.2507   65.5918 C   0  0  0  0  0  0  0  0  0  0  0  0
  -41.9812   61.4898   64.7115 O   0  0  0  0  0  0  0  0  0  0  0  0
  -40.3359   62.1561   65.9200 O   0  0  0  0  0  0  0  0  0  0  0  0
  -39.6901   61.9957   66.5798 H   0  0  0  0  0  0  0  0  0  0  0  0
  -47.1739   58.4553   64.6769 C   0  0  0  0  0  0  0  0  0  0  0  0
  -48.5937   58.6524   65.1514 C   0  0  0  0  0  0  0  0  0  0  0  0
  -49.7053   58.5252   64.1957 C   0  0  0  0  0  0  0  0  0  0  0  0
  -49.3947   58.4187   62.7237 C   0  0  0  0  0  0  0  0  0  0  0  0
  -50.6600   58.5925   61.8910 C   0  0  0  0  0  0  0  0  0  0  0  0
  -50.7294   57.5219   60.8023 C   0  0  0  0  0  0  0  0  0  0  0  0
  -50.3547   58.0837   59.4317 C   0  0  0  0  0  0  0  0  0  0  0  0
  -49.1830   57.3241   58.8046 C   0  0  0  0  0  0  0  0  0  0  0  0
  -47.8287   57.9522   59.1234 C   0  0  0  0  0  0  0  0  0  0  0  0
  7  8  2  0  0  0
  7  6  1  0  0  0
  7  9  1  0  0  0
  6  5  1  0  0  0
  9 10  1  0  0  0
  5  4  1  0  0  0
  4  3  1  0  0  0
  3  2  1  0  0  0
  2  1  1  0  0  0
  1 11  1  0  0  0
 11 12  1  0  0  0
 12 13  2  0  0  0
 13 14  1  0  0  0
 14 15  1  0  0  0
 15 16  1  0  0  0
 16 17  1  0  0  0
 17 18  1  0  0  0
 18 19  1  0  0  0
M  END
> <minimizedAffinity>
-6.83125

> <CNNscore>
0.8632625341

> <CNNaffinity>
6.4750084877

> <CNN_VS>
5.5896320343

> <CNNaffinity_variance>
0.5801597238

$$$$
/media/chris/experiments/cd1a-new-docking/inputs/ligands/4x6d_2_ligand.pdb


 19 18  0  0  0  0  0  0  0  0999 V2000
  -45.2338   57.3851   65.3726 C   0  0  0  0  0  0  0  0  0  0  0  0
  -43.8853   57.9049   64.8939 C   0  0  0  0  0  0  0  0  0  0  0  0
  -42.7829   57.6917   65.9174 C   0  0  0  0  0  0  0  0  0  0  0  0
  -41.6819   58.7215   65.7241 C   0  0  0  0  0  0  0  0  0  0  0  0
  -41.6139   59.6079   66.9546 C   0  0  0  0  0  0  0  0  0  0  0  0
  -42.1115   61.0148   66.6637 C   0  0  0  0  0  0  0  0  0  0  0  0
  -41.1568   61.6898   65.7105 C   0  0  0  0  0  0  0  0  0  0  0  0
  -39.9414   61.7477   65.9807 O   0  0  0  0  0  0  0  0  0  0  0  0
  -41.5604   62.2026   64.6452 O   0  0  0  0  0  0  0  0  0  0  0  0
  -42.4704   62.1692   64.4245 H   0  0  0  0  0  0  0  0  0  0  0  0
  -46.2589   58.4764   65.1006 C   0  0  0  0  0  0  0  0  0  0  0  0
  -47.5235   58.2672   65.8985 C   0  0  0  0  0  0  0  0  0  0  0  0
  -48.8124   58.1392   65.2002 C   0  0  0  0  0  0  0  0  0  0  0  0
  -48.8760   58.4378   63.7233 C   0  0  0  0  0  0  0  0  0  0  0  0
  -49.6911   59.6997   63.4622 C   0  0  0  0  0  0  0  0  0  0  0  0
  -50.8317   59.4022   62.4892 C   0  0  0  0  0  0  0  0  0  0  0  0
  -50.5027   58.2223   61.5757 C   0  0  0  0  0  0  0  0  0  0  0  0
  -49.9158   58.6823   60.2388 C   0  0  0  0  0  0  0  0  0  0  0  0
  -48.6290   57.9483   59.8706 C   0  0  0  0  0  0  0  0  0  0  0  0
  7  8  2  0  0  0
  7  6  1  0  0  0
  7  9  1  0  0  0
  6  5  1  0  0  0
  9 10  1  0  0  0
  5  4  1  0  0  0
  4  3  1  0  0  0
  3  2  1  0  0  0
  2  1  1  0  0  0
  1 11  1  0  0  0
 11 12  1  0  0  0
 12 13  2  0  0  0
 13 14  1  0  0  0
 14 15  1  0  0  0
 15 16  1  0  0  0
 16 17  1  0  0  0
 17 18  1  0  0  0
 18 19  1  0  0  0
M  END
> <minimizedAffinity>
-6.75694

> <CNNscore>
0.8438999057

> <CNNaffinity>
6.3335237503

> <CNN_VS>
5.3448600769

> <CNNaffinity_variance>
0.2992457449

$$$$
/media/chris/experiments/cd1a-new-docking/inputs/ligands/4x6d_2_ligand.pdb


 19 18  0  0  0  0  0  0  0  0999 V2000
  -48.0259   60.1251   64.9967 C   0  0  0  0  0  0  0  0  0  0  0  0
  -47.6385   59.6934   66.4043 C   0  0  0  0  0  0  0  0  0  0  0  0
  -46.1332   59.6259   66.5985 C   0  0  0  0  0  0  0  0  0  0  0  0
  -45.4241   60.3050   65.4384 C   0  0  0  0  0  0  0  0  0  0  0  0
  -44.1970   59.4924   65.0664 C   0  0  0  0  0  0  0  0  0  0  0  0
  -42.9134   60.2766   65.2883 C   0  0  0  0  0  0  0  0  0  0  0  0
  -42.4259   60.0391   66.6960 C   0  0  0  0  0  0  0  0  0  0  0  0
  -41.8356   58.9791   66.9819 O   0  0  0  0  0  0  0  0  0  0  0  0
  -42.6056   60.8877   67.5951 O   0  0  0  0  0  0  0  0  0  0  0  0
  -43.0473   61.6906   67.3997 H   0  0  0  0  0  0  0  0  0  0  0  0
  -49.0389   59.1143   64.4790 C   0  0  0  0  0  0  0  0  0  0  0  0
  -50.2397   59.7913   63.8629 C   0  0  0  0  0  0  0  0  0  0  0  0
  -50.8188   59.2573   62.6199 C   0  0  0  0  0  0  0  0  0  0  0  0
  -50.0732   58.1824   61.8694 C   0  0  0  0  0  0  0  0  0  0  0  0
  -50.9383   57.6026   60.7557 C   0  0  0  0  0  0  0  0  0  0  0  0
  -50.2737   57.8259   59.3975 C   0  0  0  0  0  0  0  0  0  0  0  0
  -48.8256   58.2903   59.5458 C   0  0  0  0  0  0  0  0  0  0  0  0
  -47.9966   57.9812   58.2967 C   0  0  0  0  0  0  0  0  0  0  0  0
  -46.4974   58.1654   58.5177 C   0  0  0  0  0  0  0  0  0  0  0  0
  7  8  2  0  0  0
  7  6  1  0  0  0
  7  9  1  0  0  0
  6  5  1  0  0  0
  9 10  1  0  0  0
  5  4  1  0  0  0
  4  3  1  0  0  0
  3  2  1  0  0  0
  2  1  1  0  0  0
  1 11  1  0  0  0
 11 12  1  0  0  0
 12 13  2  0  0  0
 13 14  1  0  0  0
 14 15  1  0  0  0
 15 16  1  0  0  0
 16 17  1  0  0  0
 17 18  1  0  0  0
 18 19  1  0  0  0
M  END
> <minimizedAffinity>
-7.18238

> <CNNscore>
0.7596951127

> <CNNaffinity>
6.4282121658

> <CNN_VS>
4.8834815025

> <CNNaffinity_variance>
0.5883948803

$$$$
/media/chris/experiments/cd1a-new-docking/inputs/ligands/4x6d_2_ligand.pdb


 19 18  0  0  0  0  0  0  0  0999 V2000
  -44.4325   59.4754   65.0647 C   0  0  0  0  0  0  0  0  0  0  0  0
  -44.0950   58.0605   65.5139 C   0  0  0  0  0  0  0  0  0  0  0  0
  -42.6245   57.8945   65.8579 C   0  0  0  0  0  0  0  0  0  0  0  0
  -41.9800   59.2540   66.0738 C   0  0  0  0  0  0  0  0  0  0  0  0
  -40.5848   59.2391   65.4760 C   0  0  0  0  0  0  0  0  0  0  0  0
  -40.1961   60.5991   64.9184 C   0  0  0  0  0  0  0  0  0  0  0  0
  -38.8422   60.9867   65.4593 C   0  0  0  0  0  0  0  0  0  0  0  0
  -37.9457   60.1281   65.5719 O   0  0  0  0  0  0  0  0  0  0  0  0
  -38.5958   62.1614   65.8060 O   0  0  0  0  0  0  0  0  0  0  0  0
  -39.2568   62.8210   65.7290 H   0  0  0  0  0  0  0  0  0  0  0  0
  -45.9057   59.7048   65.3695 C   0  0  0  0  0  0  0  0  0  0  0  0
  -46.7299   58.4666   65.1102 C   0  0  0  0  0  0  0  0  0  0  0  0
  -48.1788   58.4896   65.3657 C   0  0  0  0  0  0  0  0  0  0  0  0
  -48.7751   59.6727   66.0861 C   0  0  0  0  0  0  0  0  0  0  0  0
  -50.2650   59.7932   65.7854 C   0  0  0  0  0  0  0  0  0  0  0  0
  -50.4914   60.7169   64.5889 C   0  0  0  0  0  0  0  0  0  0  0  0
  -51.1765   59.9884   63.4336 C   0  0  0  0  0  0  0  0  0  0  0  0
  -50.1918   59.6406   62.3144 C   0  0  0  0  0  0  0  0  0  0  0  0
  -50.0506   58.1369   62.0929 C   0  0  0  0  0  0  0  0  0  0  0  0
  7  8  2  0  0  0
  7  6  1  0  0  0
  7  9  1  0  0  0
  6  5  1  0  0  0
  9 10  1  0  0  0
  5  4  1  0  0  0
  4  3  1  0  0  0
  3  2  1  0  0  0
  2  1  1  0  0  0
  1 11  1  0  0  0
 11 12  1  0  0  0
 12 13  2  0  0  0
 13 14  1  0  0  0
 14 15  1  0  0  0
 15 16  1  0  0  0
 16 17  1  0  0  0
 17 18  1  0  0  0
 18 19  1  0  0  0
M  END
> <minimizedAffinity>
-6.38406

> <CNNscore>
0.7535288930

> <CNNaffinity>
6.1617226601

> <CNN_VS>
4.6430358887

> <CNNaffinity_variance>
0.2656971812

$$$$
/media/chris/experiments/cd1a-new-docking/inputs/ligands/4x6d_2_ligand.pdb


 19 18  0  0  0  0  0  0  0  0999 V2000
  -42.4066   57.6336   65.5581 C   0  0  0  0  0  0  0  0  0  0  0  0
  -42.4710   58.7277   66.6148 C   0  0  0  0  0  0  0  0  0  0  0  0
  -41.3085   59.7009   66.5162 C   0  0  0  0  0  0  0  0  0  0  0  0
  -41.5158   60.6482   65.3458 C   0  0  0  0  0  0  0  0  0  0  0  0
  -40.1767   60.9115   64.6811 C   0  0  0  0  0  0  0  0  0  0  0  0
  -39.0317   60.8590   65.6800 C   0  0  0  0  0  0  0  0  0  0  0  0
  -37.8624   61.6397   65.1333 C   0  0  0  0  0  0  0  0  0  0  0  0
  -37.2790   61.2508   64.1026 O   0  0  0  0  0  0  0  0  0  0  0  0
  -37.4561   62.6774   65.6980 O   0  0  0  0  0  0  0  0  0  0  0  0
  -37.8816   62.9857   66.4739 H   0  0  0  0  0  0  0  0  0  0  0  0
  -43.8343   57.3562   65.1102 C   0  0  0  0  0  0  0  0  0  0  0  0
  -44.5678   58.6287   64.7603 C   0  0  0  0  0  0  0  0  0  0  0  0
  -45.8695   58.9141   65.3845 C   0  0  0  0  0  0  0  0  0  0  0  0
  -46.5463   57.8333   66.1895 C   0  0  0  0  0  0  0  0  0  0  0  0
  -47.8478   57.3994   65.5241 C   0  0  0  0  0  0  0  0  0  0  0  0
  -48.2238   58.3745   64.4088 C   0  0  0  0  0  0  0  0  0  0  0  0
  -49.7275   58.6439   64.3760 C   0  0  0  0  0  0  0  0  0  0  0  0
  -50.1779   59.5086   65.5562 C   0  0  0  0  0  0  0  0  0  0  0  0
  -51.0706   60.6725   65.1336 C   0  0  0  0  0  0  0  0  0  0  0  0
  7  8  2  0  0  0
  7  6  1  0  0  0
  7  9  1  0  0  0
  6  5  1  0  0  0
  9 10  1  0  0  0
  5  4  1  0  0  0
  4  3  1  0  0  0
  3  2  1  0  0  0
  2  1  1  0  0  0
  1 11  1  0  0  0
 11 12  1  0  0  0
 12 13  2  0  0  0
 13 14  1  0  0  0
 14 15  1  0  0  0
 15 16  1  0  0  0
 16 17  1  0  0  0
 17 18  1  0  0  0
 18 19  1  0  0  0
M  END
> <minimizedAffinity>
-6.06388

> <CNNscore>
0.7399442792

> <CNNaffinity>
6.1034655571

> <CNN_VS>
4.5162243843

> <CNNaffinity_variance>
0.0814358220

$$$$
/media/chris/experiments/cd1a-new-docking/inputs/ligands/4x6d_2_ligand.pdb


 19 18  0  0  0  0  0  0  0  0999 V2000
  -43.9539   58.4819   64.8150 C   0  0  0  0  0  0  0  0  0  0  0  0
  -44.1596   59.9855   64.9360 C   0  0  0  0  0  0  0  0  0  0  0  0
  -42.8552   60.7598   64.8512 C   0  0  0  0  0  0  0  0  0  0  0  0
  -41.8276   59.9701   64.0571 C   0  0  0  0  0  0  0  0  0  0  0  0
  -40.7322   60.9129   63.5929 C   0  0  0  0  0  0  0  0  0  0  0  0
  -39.5920   60.1645   62.9208 C   0  0  0  0  0  0  0  0  0  0  0  0
  -39.1880   60.9009   61.6677 C   0  0  0  0  0  0  0  0  0  0  0  0
  -38.0328   61.3556   61.5557 O   0  0  0  0  0  0  0  0  0  0  0  0
  -39.9945   61.0725   60.7292 O   0  0  0  0  0  0  0  0  0  0  0  0
  -40.8674   60.7381   60.7947 H   0  0  0  0  0  0  0  0  0  0  0  0
  -45.2184   57.8117   65.3324 C   0  0  0  0  0  0  0  0  0  0  0  0
  -45.9142   58.6573   66.3720 C   0  0  0  0  0  0  0  0  0  0  0  0
  -47.3813   58.7691   66.3569 C   0  0  0  0  0  0  0  0  0  0  0  0
  -48.1439   58.2188   65.1779 C   0  0  0  0  0  0  0  0  0  0  0  0
  -49.6470   58.3465   65.3998 C   0  0  0  0  0  0  0  0  0  0  0  0
  -50.0836   59.8032   65.2466 C   0  0  0  0  0  0  0  0  0  0  0  0
  -49.9335   60.2902   63.8061 C   0  0  0  0  0  0  0  0  0  0  0  0
  -51.0651   59.7797   62.9104 C   0  0  0  0  0  0  0  0  0  0  0  0
  -50.5956   58.7447   61.8913 C   0  0  0  0  0  0  0  0  0  0  0  0
  7  8  2  0  0  0
  7  6  1  0  0  0
  7  9  1  0  0  0
  6  5  1  0  0  0
  9 10  1  0  0  0
  5  4  1  0  0  0
  4  3  1  0  0  0
  3  2  1  0  0  0
  2  1  1  0  0  0
  1 11  1  0  0  0
 11 12  1  0  0  0
 12 13  2  0  0  0
 13 14  1  0  0  0
 14 15  1  0  0  0
 15 16  1  0  0  0
 16 17  1  0  0  0
 17 18  1  0  0  0
 18 19  1  0  0  0
M  END
> <minimizedAffinity>
-6.16727

> <CNNscore>
0.6889445782

> <CNNaffinity>
6.2067694664

> <CNN_VS>
4.2761201859

> <CNNaffinity_variance>
0.4455228448

$$$$
/media/chris/experiments/cd1a-new-docking/inputs/ligands/4x6d_2_ligand.pdb


 19 18  0  0  0  0  0  0  0  0999 V2000
  -49.2485   58.3071   63.0561 C   0  0  0  0  0  0  0  0  0  0  0  0
  -50.1170   58.7567   61.8893 C   0  0  0  0  0  0  0  0  0  0  0  0
  -50.5504   57.5986   61.0066 C   0  0  0  0  0  0  0  0  0  0  0  0
  -50.3337   57.9457   59.5428 C   0  0  0  0  0  0  0  0  0  0  0  0
  -48.8462   57.9088   59.2421 C   0  0  0  0  0  0  0  0  0  0  0  0
  -48.5717   57.4898   57.8065 C   0  0  0  0  0  0  0  0  0  0  0  0
  -47.9940   56.0963   57.8000 C   0  0  0  0  0  0  0  0  0  0  0  0
  -47.5069   55.6174   58.8427 O   0  0  0  0  0  0  0  0  0  0  0  0
  -47.9877   55.4030   56.7607 O   0  0  0  0  0  0  0  0  0  0  0  0
  -48.3492   55.7455   55.9670 H   0  0  0  0  0  0  0  0  0  0  0  0
  -49.8916   58.8411   64.3277 C   0  0  0  0  0  0  0  0  0  0  0  0
  -50.1666   60.3229   64.2355 C   0  0  0  0  0  0  0  0  0  0  0  0
  -49.2248   61.2774   64.8413 C   0  0  0  0  0  0  0  0  0  0  0  0
  -48.1233   60.7538   65.7285 C   0  0  0  0  0  0  0  0  0  0  0  0
  -46.7769   60.8247   65.0165 C   0  0  0  0  0  0  0  0  0  0  0  0
  -45.7000   60.1289   65.8486 C   0  0  0  0  0  0  0  0  0  0  0  0
  -44.3568   60.0951   65.1209 C   0  0  0  0  0  0  0  0  0  0  0  0
  -43.7460   58.6915   65.1157 C   0  0  0  0  0  0  0  0  0  0  0  0
  -42.5275   58.5701   66.0272 C   0  0  0  0  0  0  0  0  0  0  0  0
  7  8  2  0  0  0
  7  6  1  0  0  0
  7  9  1  0  0  0
  6  5  1  0  0  0
  9 10  1  0  0  0
  5  4  1  0  0  0
  4  3  1  0  0  0
  3  2  1  0  0  0
  2  1  1  0  0  0
  1 11  1  0  0  0
 11 12  1  0  0  0
 12 13  2  0  0  0
 13 14  1  0  0  0
 14 15  1  0  0  0
 15 16  1  0  0  0
 16 17  1  0  0  0
 17 18  1  0  0  0
 18 19  1  0  0  0
M  END
> <minimizedAffinity>
-7.08818

> <CNNscore>
0.6688461900

> <CNNaffinity>
6.2672472000

> <CNN_VS>
4.1918244362

> <CNNaffinity_variance>
0.4354450703

$$$$
/media/chris/experiments/cd1a-new-docking/inputs/ligands/4x6d_2_ligand.pdb


 19 18  0  0  0  0  0  0  0  0999 V2000
  -46.7841   60.1053   65.6453 C   0  0  0  0  0  0  0  0  0  0  0  0
  -46.1710   59.3870   66.8395 C   0  0  0  0  0  0  0  0  0  0  0  0
  -45.3974   58.1432   66.4359 C   0  0  0  0  0  0  0  0  0  0  0  0
  -45.0858   58.1794   64.9488 C   0  0  0  0  0  0  0  0  0  0  0  0
  -43.6104   58.4834   64.7612 C   0  0  0  0  0  0  0  0  0  0  0  0
  -42.7762   57.9655   65.9221 C   0  0  0  0  0  0  0  0  0  0  0  0
  -41.7936   59.0314   66.3392 C   0  0  0  0  0  0  0  0  0  0  0  0
  -42.0937   59.8394   67.2396 O   0  0  0  0  0  0  0  0  0  0  0  0
  -40.6737   59.1283   65.7941 O   0  0  0  0  0  0  0  0  0  0  0  0
  -40.4298   58.5302   65.1153 H   0  0  0  0  0  0  0  0  0  0  0  0
  -48.2639   60.2947   65.9455 C   0  0  0  0  0  0  0  0  0  0  0  0
  -49.0312   59.0010   65.8144 C   0  0  0  0  0  0  0  0  0  0  0  0
  -49.9752   58.8239   64.6995 C   0  0  0  0  0  0  0  0  0  0  0  0
  -50.3211   60.0132   63.8391 C   0  0  0  0  0  0  0  0  0  0  0  0
  -50.8260   59.5626   62.4728 C   0  0  0  0  0  0  0  0  0  0  0  0
  -50.2564   58.1878   62.1242 C   0  0  0  0  0  0  0  0  0  0  0  0
  -50.9606   57.5738   60.9151 C   0  0  0  0  0  0  0  0  0  0  0  0
  -50.3414   58.0420   59.5957 C   0  0  0  0  0  0  0  0  0  0  0  0
  -48.8243   58.1933   59.6719 C   0  0  0  0  0  0  0  0  0  0  0  0
  7  8  2  0  0  0
  7  6  1  0  0  0
  7  9  1  0  0  0
  6  5  1  0  0  0
  9 10  1  0  0  0
  5  4  1  0  0  0
  4  3  1  0  0  0
  3  2  1  0  0  0
  2  1  1  0  0  0
  1 11  1  0  0  0
 11 12  1  0  0  0
 12 13  2  0  0  0
 13 14  1  0  0  0
 14 15  1  0  0  0
 15 16  1  0  0  0
 16 17  1  0  0  0
 17 18  1  0  0  0
 18 19  1  0  0  0
M  END
> <minimizedAffinity>
-6.72512

> <CNNscore>
0.6319497228

> <CNNaffinity>
6.1611433029

> <CNN_VS>
3.8935327530

> <CNNaffinity_variance>
0.3422195613

$$$$
/media/chris/experiments/cd1a-new-docking/inputs/ligands/4x6d_2_ligand.pdb


 19 18  0  0  0  0  0  0  0  0999 V2000
  -41.0632   59.9222   65.9213 C   0  0  0  0  0  0  0  0  0  0  0  0
  -40.5242   58.7273   65.1472 C   0  0  0  0  0  0  0  0  0  0  0  0
  -39.5752   59.1358   64.0332 C   0  0  0  0  0  0  0  0  0  0  0  0
  -38.7109   57.9553   63.6216 C   0  0  0  0  0  0  0  0  0  0  0  0
  -38.0914   58.2462   62.2667 C   0  0  0  0  0  0  0  0  0  0  0  0
  -38.0236   59.7391   61.9868 C   0  0  0  0  0  0  0  0  0  0  0  0
  -38.4534   59.9954   60.5637 C   0  0  0  0  0  0  0  0  0  0  0  0
  -39.3500   60.8270   60.3223 O   0  0  0  0  0  0  0  0  0  0  0  0
  -37.9290   59.3834   59.6090 O   0  0  0  0  0  0  0  0  0  0  0  0
  -37.2534   58.7545   59.7702 H   0  0  0  0  0  0  0  0  0  0  0  0
  -42.5371   59.6559   66.1908 C   0  0  0  0  0  0  0  0  0  0  0  0
  -43.3378   59.5976   64.9120 C   0  0  0  0  0  0  0  0  0  0  0  0
  -44.4263   58.6165   64.7785 C   0  0  0  0  0  0  0  0  0  0  0  0
  -44.5780   57.5459   65.8298 C   0  0  0  0  0  0  0  0  0  0  0  0
  -45.9071   57.6929   66.5623 C   0  0  0  0  0  0  0  0  0  0  0  0
  -46.2032   59.1679   66.8323 C   0  0  0  0  0  0  0  0  0  0  0  0
  -47.6554   59.5209   66.5142 C   0  0  0  0  0  0  0  0  0  0  0  0
  -48.1660   58.7755   65.2785 C   0  0  0  0  0  0  0  0  0  0  0  0
  -49.6579   58.4597   65.3491 C   0  0  0  0  0  0  0  0  0  0  0  0
  7  8  2  0  0  0
  7  6  1  0  0  0
  7  9  1  0  0  0
  6  5  1  0  0  0
  9 10  1  0  0  0
  5  4  1  0  0  0
  4  3  1  0  0  0
  3  2  1  0  0  0
  2  1  1  0  0  0
  1 11  1  0  0  0
 11 12  1  0  0  0
 12 13  2  0  0  0
 13 14  1  0  0  0
 14 15  1  0  0  0
 15 16  1  0  0  0
 16 17  1  0  0  0
 17 18  1  0  0  0
 18 19  1  0  0  0
M  END
> <minimizedAffinity>
-6.42389

> <CNNscore>
0.6269682646

> <CNNaffinity>
5.9678211212

> <CNN_VS>
3.7416343689

> <CNNaffinity_variance>
0.2821676731

$$$$
