/media/chris/experiments/cd1a-new-docking/inputs/ligands/4x6e_ligand.pdb


 37 36  0  0  0  0  0  0  0  0999 V2000
  -42.0041   58.2738   64.6180 O   0  0  0  0  0  0  0  0  0  0  0  0
  -41.6587   58.6532   65.7096 C   0  0  0  0  0  0  0  0  0  0  0  0
  -42.5695   58.8767   66.8776 C   0  0  0  0  0  0  0  0  0  0  0  0
  -43.9340   59.4250   66.4774 C   0  0  0  0  0  0  0  0  0  0  0  0
  -44.9691   58.3581   66.1646 C   0  0  0  0  0  0  0  0  0  0  0  0
  -46.3262   58.6310   66.7892 C   0  0  0  0  0  0  0  0  0  0  0  0
  -47.3534   57.5600   66.4649 C   0  0  0  0  0  0  0  0  0  0  0  0
  -48.2329   57.9461   65.2965 C   0  0  0  0  0  0  0  0  0  0  0  0
  -48.6762   59.3949   65.2871 C   0  0  0  0  0  0  0  0  0  0  0  0
  -48.5047   60.0698   63.9805 C   0  0  0  0  0  0  0  0  0  0  0  0
  -49.3996   60.1319   63.0160 C   0  0  0  0  0  0  0  0  0  0  0  0
  -50.7875   59.5790   63.0352 C   0  0  0  0  0  0  0  0  0  0  0  0
  -50.8544   58.2950   62.2067 C   0  0  0  0  0  0  0  0  0  0  0  0
  -49.7596   58.1354   61.1619 C   0  0  0  0  0  0  0  0  0  0  0  0
  -49.7413   56.7889   60.4484 C   0  0  0  0  0  0  0  0  0  0  0  0
  -48.5584   56.6175   59.5012 C   0  0  0  0  0  0  0  0  0  0  0  0
  -48.6789   57.4253   58.2186 C   0  0  0  0  0  0  0  0  0  0  0  0
  -47.6648   57.0851   57.1368 C   0  0  0  0  0  0  0  0  0  0  0  0
  -47.3323   55.6253   57.0924 C   0  0  0  0  0  0  0  0  0  0  0  0
  -40.3938   58.9220   66.0461 O   0  0  0  0  0  0  0  0  0  0  0  0
  -39.3529   58.5278   65.1251 C   0  0  0  0  0  0  0  0  0  0  0  0
  -38.1527   59.4467   65.2112 C   0  0  0  0  0  0  0  0  0  0  0  0
  -37.5482   59.6271   63.9234 O   0  0  0  0  0  0  0  0  0  0  0  0
  -38.1792   60.0609   63.3280 H   0  0  0  0  0  0  0  0  0  0  0  0
  -38.4957   60.7956   65.7989 C   0  0  0  0  0  0  0  0  0  0  0  0
  -37.3477   61.4172   66.4259 O   0  0  0  0  0  0  0  0  0  0  0  0
  -36.2975   62.5154   65.9095 P   0  0  0  0  0  0  0  0  0  0  0  0
  -36.9449   63.8931   66.0386 O   0  0  0  0  0  0  0  0  0  0  0  0
  -36.0112   62.2620   64.4804 O   0  0  0  0  0  0  0  0  0  0  0  0
  -36.8399   62.2801   63.9766 H   0  0  0  0  0  0  0  0  0  0  0  0
  -34.9159   62.4933   66.8016 O   0  0  0  0  0  0  0  0  0  0  0  0
  -33.5798   62.7898   66.3120 C   0  0  0  0  0  0  0  0  0  0  0  0
  -33.4524   64.2608   66.0023 C   0  0  0  0  0  0  0  0  0  0  0  0
  -32.7656   64.6212   64.6981 N   0  0  0  0  0  0  0  0  0  0  0  0
  -31.3786   65.1160   64.9557 C   0  0  0  0  0  0  0  0  0  0  0  0
  -33.5498   65.7013   64.0283 C   0  0  0  0  0  0  0  0  0  0  0  0
  -32.6933   63.4245   63.7930 C   0  0  0  0  0  0  0  0  0  0  0  0
 34 33  1  0  0  0
 34 35  1  0  0  0
 34 36  1  0  0  0
 34 37  1  0  0  0
 22 23  1  0  0  0
 22 25  1  0  0  0
 22 21  1  0  0  0
 23 24  1  0  0  0
 27 26  1  0  0  0
 27 28  2  0  0  0
 27 31  1  0  0  0
 27 29  1  0  0  0
 25 26  1  0  0  0
 32 33  1  0  0  0
 32 31  1  0  0  0
 29 30  1  0  0  0
 20 21  1  0  0  0
 20  2  1  0  0  0
  1  2  2  0  0  0
  2  3  1  0  0  0
  3  4  1  0  0  0
  4  5  1  0  0  0
  5  6  1  0  0  0
  6  7  1  0  0  0
  7  8  1  0  0  0
  8  9  1  0  0  0
  9 10  1  0  0  0
 10 11  2  0  0  0
 11 12  1  0  0  0
 12 13  1  0  0  0
 13 14  1  0  0  0
 14 15  1  0  0  0
 15 16  1  0  0  0
 16 17  1  0  0  0
 17 18  1  0  0  0
 18 19  1  0  0  0
M  CHG 1  28  -1
M  END
> <minimizedAffinity>
-7.85348

> <CNNscore>
0.8761538267

> <CNNaffinity>
6.4542551041

> <CNN_VS>
5.6549201012

> <CNNaffinity_variance>
0.3258474767

$$$$
/media/chris/experiments/cd1a-new-docking/inputs/ligands/4x6e_ligand.pdb


 37 36  0  0  0  0  0  0  0  0999 V2000
  -41.2920   60.9368   64.9539 O   0  0  0  0  0  0  0  0  0  0  0  0
  -42.2367   60.1871   64.9365 C   0  0  0  0  0  0  0  0  0  0  0  0
  -42.5493   59.1625   65.9835 C   0  0  0  0  0  0  0  0  0  0  0  0
  -43.9010   59.3820   66.6523 C   0  0  0  0  0  0  0  0  0  0  0  0
  -44.7914   58.1516   66.6808 C   0  0  0  0  0  0  0  0  0  0  0  0
  -46.1925   58.4073   66.1539 C   0  0  0  0  0  0  0  0  0  0  0  0
  -46.3433   59.7760   65.5126 C   0  0  0  0  0  0  0  0  0  0  0  0
  -46.9204   59.6935   64.1170 C   0  0  0  0  0  0  0  0  0  0  0  0
  -48.3874   60.0582   64.0140 C   0  0  0  0  0  0  0  0  0  0  0  0
  -49.3015   59.0548   64.6055 C   0  0  0  0  0  0  0  0  0  0  0  0
  -50.4640   58.6791   64.1133 C   0  0  0  0  0  0  0  0  0  0  0  0
  -51.0987   59.1422   62.8424 C   0  0  0  0  0  0  0  0  0  0  0  0
  -50.7810   58.1658   61.7088 C   0  0  0  0  0  0  0  0  0  0  0  0
  -49.9273   58.7298   60.5825 C   0  0  0  0  0  0  0  0  0  0  0  0
  -49.7216   57.7925   59.3986 C   0  0  0  0  0  0  0  0  0  0  0  0
  -49.1674   56.4271   59.7918 C   0  0  0  0  0  0  0  0  0  0  0  0
  -47.7323   56.1971   59.3450 C   0  0  0  0  0  0  0  0  0  0  0  0
  -47.5623   55.7652   57.8962 C   0  0  0  0  0  0  0  0  0  0  0  0
  -47.4149   56.9245   56.9593 C   0  0  0  0  0  0  0  0  0  0  0  0
  -43.1633   60.1684   63.9738 O   0  0  0  0  0  0  0  0  0  0  0  0
  -42.8836   59.3983   62.7839 C   0  0  0  0  0  0  0  0  0  0  0  0
  -42.7668   60.2825   61.5604 C   0  0  0  0  0  0  0  0  0  0  0  0
  -42.7468   61.6688   61.9262 O   0  0  0  0  0  0  0  0  0  0  0  0
  -41.9618   61.8493   62.4666 H   0  0  0  0  0  0  0  0  0  0  0  0
  -41.5461   59.9643   60.7291 C   0  0  0  0  0  0  0  0  0  0  0  0
  -40.6620   59.0367   61.4041 O   0  0  0  0  0  0  0  0  0  0  0  0
  -40.2401   57.5212   61.0868 P   0  0  0  0  0  0  0  0  0  0  0  0
  -40.5190   57.2472   59.6099 O   0  0  0  0  0  0  0  0  0  0  0  0
  -41.0802   56.6152   61.9003 O   0  0  0  0  0  0  0  0  0  0  0  0
  -42.0161   56.7840   61.7096 H   0  0  0  0  0  0  0  0  0  0  0  0
  -38.6418   57.2673   61.3803 O   0  0  0  0  0  0  0  0  0  0  0  0
  -37.6078   58.2884   61.4119 C   0  0  0  0  0  0  0  0  0  0  0  0
  -36.8009   58.1743   62.6815 C   0  0  0  0  0  0  0  0  0  0  0  0
  -37.2333   59.0538   63.8399 N   0  0  0  0  0  0  0  0  0  0  0  0
  -36.0581   59.4155   64.6903 C   0  0  0  0  0  0  0  0  0  0  0  0
  -38.2193   58.2994   64.6699 C   0  0  0  0  0  0  0  0  0  0  0  0
  -37.8718   60.3157   63.3332 C   0  0  0  0  0  0  0  0  0  0  0  0
 34 33  1  0  0  0
 34 35  1  0  0  0
 34 36  1  0  0  0
 34 37  1  0  0  0
 22 23  1  0  0  0
 22 25  1  0  0  0
 22 21  1  0  0  0
 23 24  1  0  0  0
 27 26  1  0  0  0
 27 28  2  0  0  0
 27 31  1  0  0  0
 27 29  1  0  0  0
 25 26  1  0  0  0
 32 33  1  0  0  0
 32 31  1  0  0  0
 29 30  1  0  0  0
 20 21  1  0  0  0
 20  2  1  0  0  0
  1  2  2  0  0  0
  2  3  1  0  0  0
  3  4  1  0  0  0
  4  5  1  0  0  0
  5  6  1  0  0  0
  6  7  1  0  0  0
  7  8  1  0  0  0
  8  9  1  0  0  0
  9 10  1  0  0  0
 10 11  2  0  0  0
 11 12  1  0  0  0
 12 13  1  0  0  0
 13 14  1  0  0  0
 14 15  1  0  0  0
 15 16  1  0  0  0
 16 17  1  0  0  0
 17 18  1  0  0  0
 18 19  1  0  0  0
M  CHG 1  28  -1
M  END
> <minimizedAffinity>
-7.65836

> <CNNscore>
0.7815980315

> <CNNaffinity>
7.0797553062

> <CNN_VS>
5.5335226059

> <CNNaffinity_variance>
0.3123677373

$$$$
/media/chris/experiments/cd1a-new-docking/inputs/ligands/4x6e_ligand.pdb


 37 36  0  0  0  0  0  0  0  0999 V2000
  -43.5863   60.2122   63.3925 O   0  0  0  0  0  0  0  0  0  0  0  0
  -43.6849   59.0694   63.7655 C   0  0  0  0  0  0  0  0  0  0  0  0
  -44.8055   58.5222   64.5952 C   0  0  0  0  0  0  0  0  0  0  0  0
  -45.2477   59.4690   65.7045 C   0  0  0  0  0  0  0  0  0  0  0  0
  -46.1580   58.8345   66.7420 C   0  0  0  0  0  0  0  0  0  0  0  0
  -46.8199   57.5544   66.2631 C   0  0  0  0  0  0  0  0  0  0  0  0
  -48.3137   57.7098   66.0350 C   0  0  0  0  0  0  0  0  0  0  0  0
  -48.6231   58.4251   64.7389 C   0  0  0  0  0  0  0  0  0  0  0  0
  -49.4702   59.6724   64.8886 C   0  0  0  0  0  0  0  0  0  0  0  0
  -50.8366   59.5440   64.3331 C   0  0  0  0  0  0  0  0  0  0  0  0
  -51.1687   59.6334   63.0617 C   0  0  0  0  0  0  0  0  0  0  0  0
  -50.2507   59.8408   61.9011 C   0  0  0  0  0  0  0  0  0  0  0  0
  -49.8720   58.4944   61.2820 C   0  0  0  0  0  0  0  0  0  0  0  0
  -49.6640   58.5053   59.7747 C   0  0  0  0  0  0  0  0  0  0  0  0
  -49.6308   57.1301   59.1189 C   0  0  0  0  0  0  0  0  0  0  0  0
  -48.6485   56.1658   59.7754 C   0  0  0  0  0  0  0  0  0  0  0  0
  -47.3764   55.9461   58.9719 C   0  0  0  0  0  0  0  0  0  0  0  0
  -47.5651   55.8558   57.4651 C   0  0  0  0  0  0  0  0  0  0  0  0
  -47.1814   57.1182   56.7561 C   0  0  0  0  0  0  0  0  0  0  0  0
  -42.8031   58.1070   63.4792 O   0  0  0  0  0  0  0  0  0  0  0  0
  -41.5073   58.5065   62.9810 C   0  0  0  0  0  0  0  0  0  0  0  0
  -40.4918   57.3904   63.1059 C   0  0  0  0  0  0  0  0  0  0  0  0
  -40.3341   56.6953   61.8616 O   0  0  0  0  0  0  0  0  0  0  0  0
  -39.9854   57.3050   61.1927 H   0  0  0  0  0  0  0  0  0  0  0  0
  -39.1447   57.8823   63.5812 C   0  0  0  0  0  0  0  0  0  0  0  0
  -39.2709   58.8293   64.6697 O   0  0  0  0  0  0  0  0  0  0  0  0
  -38.5344   60.2206   64.9819 P   0  0  0  0  0  0  0  0  0  0  0  0
  -38.7214   60.5376   66.4647 O   0  0  0  0  0  0  0  0  0  0  0  0
  -39.1810   61.2878   64.1873 O   0  0  0  0  0  0  0  0  0  0  0  0
  -40.1277   61.3178   64.3962 H   0  0  0  0  0  0  0  0  0  0  0  0
  -36.9243   60.1355   64.6571 O   0  0  0  0  0  0  0  0  0  0  0  0
  -36.0273   61.2668   64.4885 C   0  0  0  0  0  0  0  0  0  0  0  0
  -35.4847   61.7058   65.8260 C   0  0  0  0  0  0  0  0  0  0  0  0
  -34.9363   63.1185   65.9037 N   0  0  0  0  0  0  0  0  0  0  0  0
  -35.7167   63.9300   66.8873 C   0  0  0  0  0  0  0  0  0  0  0  0
  -35.0502   63.7495   64.5549 C   0  0  0  0  0  0  0  0  0  0  0  0
  -33.4944   63.1013   66.3247 C   0  0  0  0  0  0  0  0  0  0  0  0
 34 33  1  0  0  0
 34 35  1  0  0  0
 34 36  1  0  0  0
 34 37  1  0  0  0
 22 23  1  0  0  0
 22 25  1  0  0  0
 22 21  1  0  0  0
 23 24  1  0  0  0
 27 26  1  0  0  0
 27 28  2  0  0  0
 27 31  1  0  0  0
 27 29  1  0  0  0
 25 26  1  0  0  0
 32 33  1  0  0  0
 32 31  1  0  0  0
 29 30  1  0  0  0
 20 21  1  0  0  0
 20  2  1  0  0  0
  1  2  2  0  0  0
  2  3  1  0  0  0
  3  4  1  0  0  0
  4  5  1  0  0  0
  5  6  1  0  0  0
  6  7  1  0  0  0
  7  8  1  0  0  0
  8  9  1  0  0  0
  9 10  1  0  0  0
 10 11  2  0  0  0
 11 12  1  0  0  0
 12 13  1  0  0  0
 13 14  1  0  0  0
 14 15  1  0  0  0
 15 16  1  0  0  0
 16 17  1  0  0  0
 17 18  1  0  0  0
 18 19  1  0  0  0
M  CHG 1  28  -1
M  END
> <minimizedAffinity>
-7.65561

> <CNNscore>
0.7761803865

> <CNNaffinity>
6.6898560524

> <CNN_VS>
5.1925349236

> <CNNaffinity_variance>
0.2655153871

$$$$
/media/chris/experiments/cd1a-new-docking/inputs/ligands/4x6e_ligand.pdb


 37 36  0  0  0  0  0  0  0  0999 V2000
  -41.7709   60.6511   64.7771 O   0  0  0  0  0  0  0  0  0  0  0  0
  -41.2369   60.5124   65.8496 C   0  0  0  0  0  0  0  0  0  0  0  0
  -41.8300   59.8026   67.0277 C   0  0  0  0  0  0  0  0  0  0  0  0
  -42.8456   58.7360   66.6359 C   0  0  0  0  0  0  0  0  0  0  0  0
  -44.2939   59.1790   66.7528 C   0  0  0  0  0  0  0  0  0  0  0  0
  -45.0777   59.0300   65.4606 C   0  0  0  0  0  0  0  0  0  0  0  0
  -46.3237   59.8979   65.4205 C   0  0  0  0  0  0  0  0  0  0  0  0
  -47.3318   59.5007   66.4757 C   0  0  0  0  0  0  0  0  0  0  0  0
  -48.7751   59.7878   66.1150 C   0  0  0  0  0  0  0  0  0  0  0  0
  -49.5104   58.6151   65.5894 C   0  0  0  0  0  0  0  0  0  0  0  0
  -50.4189   58.6326   64.6359 C   0  0  0  0  0  0  0  0  0  0  0  0
  -50.8793   59.8165   63.8491 C   0  0  0  0  0  0  0  0  0  0  0  0
  -50.8717   59.4908   62.3546 C   0  0  0  0  0  0  0  0  0  0  0  0
  -50.2719   58.1423   61.9842 C   0  0  0  0  0  0  0  0  0  0  0  0
  -50.8733   57.4879   60.7463 C   0  0  0  0  0  0  0  0  0  0  0  0
  -50.1546   57.8561   59.4525 C   0  0  0  0  0  0  0  0  0  0  0  0
  -48.8992   57.0377   59.1951 C   0  0  0  0  0  0  0  0  0  0  0  0
  -48.2200   57.2900   57.8574 C   0  0  0  0  0  0  0  0  0  0  0  0
  -47.6013   56.0545   57.2793 C   0  0  0  0  0  0  0  0  0  0  0  0
  -40.0155   60.9670   66.1451 O   0  0  0  0  0  0  0  0  0  0  0  0
  -38.8826   60.1647   65.7453 C   0  0  0  0  0  0  0  0  0  0  0  0
  -37.7117   61.0241   65.3179 C   0  0  0  0  0  0  0  0  0  0  0  0
  -37.5836   62.1769   66.1611 O   0  0  0  0  0  0  0  0  0  0  0  0
  -37.3944   61.8938   67.0693 H   0  0  0  0  0  0  0  0  0  0  0  0
  -36.4070   60.2626   65.3061 C   0  0  0  0  0  0  0  0  0  0  0  0
  -36.0855   59.7662   63.9840 O   0  0  0  0  0  0  0  0  0  0  0  0
  -36.2966   58.3365   63.2860 P   0  0  0  0  0  0  0  0  0  0  0  0
  -35.4192   57.3171   64.0107 O   0  0  0  0  0  0  0  0  0  0  0  0
  -35.8499   58.4258   61.8786 O   0  0  0  0  0  0  0  0  0  0  0  0
  -34.9247   58.7156   61.8508 H   0  0  0  0  0  0  0  0  0  0  0  0
  -37.8642   57.8472   63.3784 O   0  0  0  0  0  0  0  0  0  0  0  0
  -38.6314   57.2360   62.3057 C   0  0  0  0  0  0  0  0  0  0  0  0
  -39.8129   58.1040   61.9496 C   0  0  0  0  0  0  0  0  0  0  0  0
  -41.1647   57.4171   61.8918 N   0  0  0  0  0  0  0  0  0  0  0  0
  -42.2661   58.4126   62.0672 C   0  0  0  0  0  0  0  0  0  0  0  0
  -41.2375   56.4131   62.9950 C   0  0  0  0  0  0  0  0  0  0  0  0
  -41.3457   56.7211   60.5729 C   0  0  0  0  0  0  0  0  0  0  0  0
 34 33  1  0  0  0
 34 35  1  0  0  0
 34 36  1  0  0  0
 34 37  1  0  0  0
 22 23  1  0  0  0
 22 25  1  0  0  0
 22 21  1  0  0  0
 23 24  1  0  0  0
 27 26  1  0  0  0
 27 28  2  0  0  0
 27 31  1  0  0  0
 27 29  1  0  0  0
 25 26  1  0  0  0
 32 33  1  0  0  0
 32 31  1  0  0  0
 29 30  1  0  0  0
 20 21  1  0  0  0
 20  2  1  0  0  0
  1  2  2  0  0  0
  2  3  1  0  0  0
  3  4  1  0  0  0
  4  5  1  0  0  0
  5  6  1  0  0  0
  6  7  1  0  0  0
  7  8  1  0  0  0
  8  9  1  0  0  0
  9 10  1  0  0  0
 10 11  2  0  0  0
 11 12  1  0  0  0
 12 13  1  0  0  0
 13 14  1  0  0  0
 14 15  1  0  0  0
 15 16  1  0  0  0
 16 17  1  0  0  0
 17 18  1  0  0  0
 18 19  1  0  0  0
M  CHG 1  28  -1
M  END
> <minimizedAffinity>
-8.12306

> <CNNscore>
0.7680929899

> <CNNaffinity>
7.1199584007

> <CNN_VS>
5.4687900543

> <CNNaffinity_variance>
0.2462154627

$$$$
/media/chris/experiments/cd1a-new-docking/inputs/ligands/4x6e_ligand.pdb


 37 36  0  0  0  0  0  0  0  0999 V2000
  -39.6003   61.0057   66.1546 O   0  0  0  0  0  0  0  0  0  0  0  0
  -39.4281   59.8338   65.9272 C   0  0  0  0  0  0  0  0  0  0  0  0
  -40.5134   58.8176   65.7450 C   0  0  0  0  0  0  0  0  0  0  0  0
  -41.7937   59.1672   66.4942 C   0  0  0  0  0  0  0  0  0  0  0  0
  -42.8050   58.0360   66.5653 C   0  0  0  0  0  0  0  0  0  0  0  0
  -44.1597   58.3989   65.9829 C   0  0  0  0  0  0  0  0  0  0  0  0
  -45.0467   59.1432   66.9661 C   0  0  0  0  0  0  0  0  0  0  0  0
  -46.3880   59.5035   66.3673 C   0  0  0  0  0  0  0  0  0  0  0  0
  -46.9970   58.4335   65.4841 C   0  0  0  0  0  0  0  0  0  0  0  0
  -48.3450   57.9943   65.9108 C   0  0  0  0  0  0  0  0  0  0  0  0
  -49.4864   58.5647   65.5838 C   0  0  0  0  0  0  0  0  0  0  0  0
  -49.6822   59.7438   64.6871 C   0  0  0  0  0  0  0  0  0  0  0  0
  -51.0517   59.6687   64.0101 C   0  0  0  0  0  0  0  0  0  0  0  0
  -51.0245   59.5878   62.4908 C   0  0  0  0  0  0  0  0  0  0  0  0
  -50.6375   58.2267   61.9250 C   0  0  0  0  0  0  0  0  0  0  0  0
  -49.9989   58.3011   60.5421 C   0  0  0  0  0  0  0  0  0  0  0  0
  -49.3079   57.0152   60.1167 C   0  0  0  0  0  0  0  0  0  0  0  0
  -48.6409   57.0554   58.7499 C   0  0  0  0  0  0  0  0  0  0  0  0
  -47.6001   55.9916   58.5813 C   0  0  0  0  0  0  0  0  0  0  0  0
  -38.2273   59.2637   65.7899 O   0  0  0  0  0  0  0  0  0  0  0  0
  -38.1614   57.9823   65.1261 C   0  0  0  0  0  0  0  0  0  0  0  0
  -36.9109   57.8533   64.2823 C   0  0  0  0  0  0  0  0  0  0  0  0
  -35.9792   56.9401   64.8776 O   0  0  0  0  0  0  0  0  0  0  0  0
  -36.3734   56.0546   64.9147 H   0  0  0  0  0  0  0  0  0  0  0  0
  -37.2085   57.4164   62.8670 C   0  0  0  0  0  0  0  0  0  0  0  0
  -37.2851   58.5434   61.9606 O   0  0  0  0  0  0  0  0  0  0  0  0
  -38.5017   59.4904   61.5149 P   0  0  0  0  0  0  0  0  0  0  0  0
  -38.4768   59.6150   59.9924 O   0  0  0  0  0  0  0  0  0  0  0  0
  -38.2959   60.8333   62.1003 O   0  0  0  0  0  0  0  0  0  0  0  0
  -37.4360   61.1812   61.8168 H   0  0  0  0  0  0  0  0  0  0  0  0
  -39.9517   58.8628   61.9716 O   0  0  0  0  0  0  0  0  0  0  0  0
  -41.2058   58.9997   61.2495 C   0  0  0  0  0  0  0  0  0  0  0  0
  -41.6176   60.4499   61.1902 C   0  0  0  0  0  0  0  0  0  0  0  0
  -42.5790   60.9251   62.2637 N   0  0  0  0  0  0  0  0  0  0  0  0
  -43.4959   59.8176   62.6734 C   0  0  0  0  0  0  0  0  0  0  0  0
  -43.3923   62.0497   61.7122 C   0  0  0  0  0  0  0  0  0  0  0  0
  -41.8249   61.4024   63.4721 C   0  0  0  0  0  0  0  0  0  0  0  0
 34 33  1  0  0  0
 34 35  1  0  0  0
 34 36  1  0  0  0
 34 37  1  0  0  0
 22 23  1  0  0  0
 22 25  1  0  0  0
 22 21  1  0  0  0
 23 24  1  0  0  0
 27 26  1  0  0  0
 27 28  2  0  0  0
 27 31  1  0  0  0
 27 29  1  0  0  0
 25 26  1  0  0  0
 32 33  1  0  0  0
 32 31  1  0  0  0
 29 30  1  0  0  0
 20 21  1  0  0  0
 20  2  1  0  0  0
  1  2  2  0  0  0
  2  3  1  0  0  0
  3  4  1  0  0  0
  4  5  1  0  0  0
  5  6  1  0  0  0
  6  7  1  0  0  0
  7  8  1  0  0  0
  8  9  1  0  0  0
  9 10  1  0  0  0
 10 11  2  0  0  0
 11 12  1  0  0  0
 12 13  1  0  0  0
 13 14  1  0  0  0
 14 15  1  0  0  0
 15 16  1  0  0  0
 16 17  1  0  0  0
 17 18  1  0  0  0
 18 19  1  0  0  0
M  CHG 1  28  -1
M  END
> <minimizedAffinity>
-7.64960

> <CNNscore>
0.7555441856

> <CNNaffinity>
7.1508011818

> <CNN_VS>
5.4027462006

> <CNNaffinity_variance>
0.3242621124

$$$$
/media/chris/experiments/cd1a-new-docking/inputs/ligands/4x6e_ligand.pdb


 37 36  0  0  0  0  0  0  0  0999 V2000
  -43.7730   61.6307   62.6829 O   0  0  0  0  0  0  0  0  0  0  0  0
  -43.3572   60.6342   63.2201 C   0  0  0  0  0  0  0  0  0  0  0  0
  -44.2043   59.5244   63.7627 C   0  0  0  0  0  0  0  0  0  0  0  0
  -45.2177   59.9955   64.7989 C   0  0  0  0  0  0  0  0  0  0  0  0
  -45.0669   59.3429   66.1623 C   0  0  0  0  0  0  0  0  0  0  0  0
  -45.1762   57.8288   66.1231 C   0  0  0  0  0  0  0  0  0  0  0  0
  -46.4320   57.3081   66.8009 C   0  0  0  0  0  0  0  0  0  0  0  0
  -47.6388   57.3654   65.8910 C   0  0  0  0  0  0  0  0  0  0  0  0
  -48.5177   58.5853   66.0781 C   0  0  0  0  0  0  0  0  0  0  0  0
  -49.9328   58.3735   65.6973 C   0  0  0  0  0  0  0  0  0  0  0  0
  -50.4872   58.7142   64.5521 C   0  0  0  0  0  0  0  0  0  0  0  0
  -49.8157   59.3458   63.3763 C   0  0  0  0  0  0  0  0  0  0  0  0
  -49.6372   58.3185   62.2572 C   0  0  0  0  0  0  0  0  0  0  0  0
  -50.0474   58.7884   60.8692 C   0  0  0  0  0  0  0  0  0  0  0  0
  -50.2203   57.6793   59.8385 C   0  0  0  0  0  0  0  0  0  0  0  0
  -49.3477   56.4575   60.1062 C   0  0  0  0  0  0  0  0  0  0  0  0
  -48.2067   56.2908   59.1151 C   0  0  0  0  0  0  0  0  0  0  0  0
  -48.2682   57.1947   57.8930 C   0  0  0  0  0  0  0  0  0  0  0  0
  -47.2168   56.8684   56.8773 C   0  0  0  0  0  0  0  0  0  0  0  0
  -42.0612   60.3636   63.4020 O   0  0  0  0  0  0  0  0  0  0  0  0
  -41.7030   59.4796   64.4869 C   0  0  0  0  0  0  0  0  0  0  0  0
  -41.0263   60.2266   65.6167 C   0  0  0  0  0  0  0  0  0  0  0  0
  -41.7069   60.0079   66.8598 O   0  0  0  0  0  0  0  0  0  0  0  0
  -41.6617   59.0672   67.0919 H   0  0  0  0  0  0  0  0  0  0  0  0
  -39.5701   59.8538   65.7685 C   0  0  0  0  0  0  0  0  0  0  0  0
  -38.7446   61.0105   66.0477 O   0  0  0  0  0  0  0  0  0  0  0  0
  -37.3887   61.5556   65.3842 P   0  0  0  0  0  0  0  0  0  0  0  0
  -37.6174   61.7001   63.8806 O   0  0  0  0  0  0  0  0  0  0  0  0
  -36.3192   60.5574   65.6037 O   0  0  0  0  0  0  0  0  0  0  0  0
  -36.5927   59.7037   65.2331 H   0  0  0  0  0  0  0  0  0  0  0  0
  -36.9644   63.0208   65.9990 O   0  0  0  0  0  0  0  0  0  0  0  0
  -35.6166   63.4441   66.3414 C   0  0  0  0  0  0  0  0  0  0  0  0
  -34.6707   63.1417   65.2056 C   0  0  0  0  0  0  0  0  0  0  0  0
  -33.7216   64.2542   64.8004 N   0  0  0  0  0  0  0  0  0  0  0  0
  -34.3161   65.0758   63.7020 C   0  0  0  0  0  0  0  0  0  0  0  0
  -32.4488   63.6424   64.3147 C   0  0  0  0  0  0  0  0  0  0  0  0
  -33.4287   65.1488   65.9710 C   0  0  0  0  0  0  0  0  0  0  0  0
 34 33  1  0  0  0
 34 35  1  0  0  0
 34 36  1  0  0  0
 34 37  1  0  0  0
 22 23  1  0  0  0
 22 25  1  0  0  0
 22 21  1  0  0  0
 23 24  1  0  0  0
 27 26  1  0  0  0
 27 28  2  0  0  0
 27 31  1  0  0  0
 27 29  1  0  0  0
 25 26  1  0  0  0
 32 33  1  0  0  0
 32 31  1  0  0  0
 29 30  1  0  0  0
 20 21  1  0  0  0
 20  2  1  0  0  0
  1  2  2  0  0  0
  2  3  1  0  0  0
  3  4  1  0  0  0
  4  5  1  0  0  0
  5  6  1  0  0  0
  6  7  1  0  0  0
  7  8  1  0  0  0
  8  9  1  0  0  0
  9 10  1  0  0  0
 10 11  2  0  0  0
 11 12  1  0  0  0
 12 13  1  0  0  0
 13 14  1  0  0  0
 14 15  1  0  0  0
 15 16  1  0  0  0
 16 17  1  0  0  0
 17 18  1  0  0  0
 18 19  1  0  0  0
M  CHG 1  28  -1
M  END
> <minimizedAffinity>
-7.79276

> <CNNscore>
0.7021476030

> <CNNaffinity>
6.4296250343

> <CNN_VS>
4.5145459175

> <CNNaffinity_variance>
0.2663105726

$$$$
/media/chris/experiments/cd1a-new-docking/inputs/ligands/4x6e_ligand.pdb


 37 36  0  0  0  0  0  0  0  0999 V2000
  -42.8428   61.1028   63.2925 O   0  0  0  0  0  0  0  0  0  0  0  0
  -42.8651   60.0379   63.8583 C   0  0  0  0  0  0  0  0  0  0  0  0
  -43.7395   58.8789   63.4898 C   0  0  0  0  0  0  0  0  0  0  0  0
  -45.1784   59.0383   63.9659 C   0  0  0  0  0  0  0  0  0  0  0  0
  -45.3733   58.8078   65.4547 C   0  0  0  0  0  0  0  0  0  0  0  0
  -45.6045   57.3509   65.8156 C   0  0  0  0  0  0  0  0  0  0  0  0
  -46.9451   57.1135   66.4894 C   0  0  0  0  0  0  0  0  0  0  0  0
  -48.1073   57.5090   65.6060 C   0  0  0  0  0  0  0  0  0  0  0  0
  -48.7563   58.8304   65.9644 C   0  0  0  0  0  0  0  0  0  0  0  0
  -50.2024   58.8962   65.6537 C   0  0  0  0  0  0  0  0  0  0  0  0
  -50.7464   59.4987   64.6164 C   0  0  0  0  0  0  0  0  0  0  0  0
  -50.0363   60.2083   63.5097 C   0  0  0  0  0  0  0  0  0  0  0  0
  -49.7029   59.2279   62.3841 C   0  0  0  0  0  0  0  0  0  0  0  0
  -50.7833   58.2034   62.0703 C   0  0  0  0  0  0  0  0  0  0  0  0
  -50.7832   57.6852   60.6371 C   0  0  0  0  0  0  0  0  0  0  0  0
  -49.4299   57.1477   60.1839 C   0  0  0  0  0  0  0  0  0  0  0  0
  -49.1102   57.4433   58.7270 C   0  0  0  0  0  0  0  0  0  0  0  0
  -47.9175   56.6911   58.1561 C   0  0  0  0  0  0  0  0  0  0  0  0
  -47.8670   56.7345   56.6598 C   0  0  0  0  0  0  0  0  0  0  0  0
  -42.0937   59.7265   64.9041 O   0  0  0  0  0  0  0  0  0  0  0  0
  -40.7864   60.3363   64.9827 C   0  0  0  0  0  0  0  0  0  0  0  0
  -39.8010   59.4537   65.7192 C   0  0  0  0  0  0  0  0  0  0  0  0
  -39.8215   58.1160   65.2031 O   0  0  0  0  0  0  0  0  0  0  0  0
  -39.5380   58.1229   64.2755 H   0  0  0  0  0  0  0  0  0  0  0  0
  -38.3899   59.9909   65.6675 C   0  0  0  0  0  0  0  0  0  0  0  0
  -37.5341   59.1759   64.8304 O   0  0  0  0  0  0  0  0  0  0  0  0
  -36.9483   59.3903   63.3516 P   0  0  0  0  0  0  0  0  0  0  0  0
  -36.9076   58.0323   62.6527 O   0  0  0  0  0  0  0  0  0  0  0  0
  -35.5659   59.9055   63.4597 O   0  0  0  0  0  0  0  0  0  0  0  0
  -35.0304   59.2876   63.9814 H   0  0  0  0  0  0  0  0  0  0  0  0
  -37.8921   60.4107   62.4724 O   0  0  0  0  0  0  0  0  0  0  0  0
  -38.6832   60.0500   61.3075 C   0  0  0  0  0  0  0  0  0  0  0  0
  -39.9910   59.4321   61.7363 C   0  0  0  0  0  0  0  0  0  0  0  0
  -40.4035   58.1575   61.0238 N   0  0  0  0  0  0  0  0  0  0  0  0
  -40.4714   57.0169   61.9879 C   0  0  0  0  0  0  0  0  0  0  0  0
  -39.3870   57.8467   59.9748 C   0  0  0  0  0  0  0  0  0  0  0  0
  -41.7491   58.3272   60.3778 C   0  0  0  0  0  0  0  0  0  0  0  0
 34 33  1  0  0  0
 34 35  1  0  0  0
 34 36  1  0  0  0
 34 37  1  0  0  0
 22 23  1  0  0  0
 22 25  1  0  0  0
 22 21  1  0  0  0
 23 24  1  0  0  0
 27 26  1  0  0  0
 27 28  2  0  0  0
 27 31  1  0  0  0
 27 29  1  0  0  0
 25 26  1  0  0  0
 32 33  1  0  0  0
 32 31  1  0  0  0
 29 30  1  0  0  0
 20 21  1  0  0  0
 20  2  1  0  0  0
  1  2  2  0  0  0
  2  3  1  0  0  0
  3  4  1  0  0  0
  4  5  1  0  0  0
  5  6  1  0  0  0
  6  7  1  0  0  0
  7  8  1  0  0  0
  8  9  1  0  0  0
  9 10  1  0  0  0
 10 11  2  0  0  0
 11 12  1  0  0  0
 12 13  1  0  0  0
 13 14  1  0  0  0
 14 15  1  0  0  0
 15 16  1  0  0  0
 16 17  1  0  0  0
 17 18  1  0  0  0
 18 19  1  0  0  0
M  CHG 1  28  -1
M  END
> <minimizedAffinity>
-7.70536

> <CNNscore>
0.6860352755

> <CNNaffinity>
7.0798759460

> <CNN_VS>
4.8570446968

> <CNNaffinity_variance>
0.2394503355

$$$$
/media/chris/experiments/cd1a-new-docking/inputs/ligands/4x6e_ligand.pdb


 37 36  0  0  0  0  0  0  0  0999 V2000
  -43.6117   60.8558   62.8709 O   0  0  0  0  0  0  0  0  0  0  0  0
  -43.6418   59.6939   63.1931 C   0  0  0  0  0  0  0  0  0  0  0  0
  -44.7722   59.0228   63.9111 C   0  0  0  0  0  0  0  0  0  0  0  0
  -45.1211   59.6901   65.2361 C   0  0  0  0  0  0  0  0  0  0  0  0
  -45.1370   58.7462   66.4262 C   0  0  0  0  0  0  0  0  0  0  0  0
  -45.8121   57.4175   66.1348 C   0  0  0  0  0  0  0  0  0  0  0  0
  -47.2628   57.3796   66.5835 C   0  0  0  0  0  0  0  0  0  0  0  0
  -48.2099   57.8380   65.4970 C   0  0  0  0  0  0  0  0  0  0  0  0
  -48.7313   59.2508   65.6638 C   0  0  0  0  0  0  0  0  0  0  0  0
  -50.2022   59.3692   65.5431 C   0  0  0  0  0  0  0  0  0  0  0  0
  -50.8788   59.5241   64.4237 C   0  0  0  0  0  0  0  0  0  0  0  0
  -50.3283   59.5738   63.0355 C   0  0  0  0  0  0  0  0  0  0  0  0
  -50.2115   58.1597   62.4644 C   0  0  0  0  0  0  0  0  0  0  0  0
  -50.6537   58.0025   61.0169 C   0  0  0  0  0  0  0  0  0  0  0  0
  -50.0356   56.8209   60.2791 C   0  0  0  0  0  0  0  0  0  0  0  0
  -48.6168   57.0852   59.7862 C   0  0  0  0  0  0  0  0  0  0  0  0
  -47.9071   55.8440   59.2688 C   0  0  0  0  0  0  0  0  0  0  0  0
  -47.1898   56.0109   57.9377 C   0  0  0  0  0  0  0  0  0  0  0  0
  -47.8303   57.0413   57.0593 C   0  0  0  0  0  0  0  0  0  0  0  0
  -42.6631   58.8192   62.9428 O   0  0  0  0  0  0  0  0  0  0  0  0
  -41.8468   58.3851   64.0528 C   0  0  0  0  0  0  0  0  0  0  0  0
  -41.4536   59.5438   64.9445 C   0  0  0  0  0  0  0  0  0  0  0  0
  -41.1451   59.0924   66.2702 O   0  0  0  0  0  0  0  0  0  0  0  0
  -40.3767   58.5013   66.2398 H   0  0  0  0  0  0  0  0  0  0  0  0
  -40.2845   60.3276   64.3956 C   0  0  0  0  0  0  0  0  0  0  0  0
  -39.5026   59.5445   63.4614 O   0  0  0  0  0  0  0  0  0  0  0  0
  -39.0630   59.8013   61.9393 P   0  0  0  0  0  0  0  0  0  0  0  0
  -38.3411   61.1460   61.8712 O   0  0  0  0  0  0  0  0  0  0  0  0
  -40.2796   59.8774   61.1012 O   0  0  0  0  0  0  0  0  0  0  0  0
  -40.8616   60.5760   61.4388 H   0  0  0  0  0  0  0  0  0  0  0  0
  -38.0466   58.6262   61.3999 O   0  0  0  0  0  0  0  0  0  0  0  0
  -37.3180   57.6815   62.2304 C   0  0  0  0  0  0  0  0  0  0  0  0
  -36.0687   58.3251   62.7792 C   0  0  0  0  0  0  0  0  0  0  0  0
  -35.9866   58.4665   64.2877 N   0  0  0  0  0  0  0  0  0  0  0  0
  -34.6325   58.0656   64.7785 C   0  0  0  0  0  0  0  0  0  0  0  0
  -37.0114   57.5741   64.9073 C   0  0  0  0  0  0  0  0  0  0  0  0
  -36.2503   59.8872   64.6986 C   0  0  0  0  0  0  0  0  0  0  0  0
 34 33  1  0  0  0
 34 35  1  0  0  0
 34 36  1  0  0  0
 34 37  1  0  0  0
 22 23  1  0  0  0
 22 25  1  0  0  0
 22 21  1  0  0  0
 23 24  1  0  0  0
 27 26  1  0  0  0
 27 28  2  0  0  0
 27 31  1  0  0  0
 27 29  1  0  0  0
 25 26  1  0  0  0
 32 33  1  0  0  0
 32 31  1  0  0  0
 29 30  1  0  0  0
 20 21  1  0  0  0
 20  2  1  0  0  0
  1  2  2  0  0  0
  2  3  1  0  0  0
  3  4  1  0  0  0
  4  5  1  0  0  0
  5  6  1  0  0  0
  6  7  1  0  0  0
  7  8  1  0  0  0
  8  9  1  0  0  0
  9 10  1  0  0  0
 10 11  2  0  0  0
 11 12  1  0  0  0
 12 13  1  0  0  0
 13 14  1  0  0  0
 14 15  1  0  0  0
 15 16  1  0  0  0
 16 17  1  0  0  0
 17 18  1  0  0  0
 18 19  1  0  0  0
M  CHG 1  28  -1
M  END
> <minimizedAffinity>
-7.48725

> <CNNscore>
0.6659132242

> <CNNaffinity>
6.8317122459

> <CNN_VS>
4.5493273735

> <CNNaffinity_variance>
0.2297348529

$$$$
/media/chris/experiments/cd1a-new-docking/inputs/ligands/4x6e_ligand.pdb


 37 36  0  0  0  0  0  0  0  0999 V2000
  -42.4706   60.2136   66.2690 O   0  0  0  0  0  0  0  0  0  0  0  0
  -43.3287   59.6809   65.6097 C   0  0  0  0  0  0  0  0  0  0  0  0
  -44.8025   59.7908   65.8537 C   0  0  0  0  0  0  0  0  0  0  0  0
  -45.5927   60.1469   64.6002 C   0  0  0  0  0  0  0  0  0  0  0  0
  -46.7273   59.1878   64.2831 C   0  0  0  0  0  0  0  0  0  0  0  0
  -46.9418   58.1308   65.3522 C   0  0  0  0  0  0  0  0  0  0  0  0
  -48.3712   58.0884   65.8644 C   0  0  0  0  0  0  0  0  0  0  0  0
  -48.9515   59.4719   66.0561 C   0  0  0  0  0  0  0  0  0  0  0  0
  -50.1216   59.8005   65.1512 C   0  0  0  0  0  0  0  0  0  0  0  0
  -50.5968   58.6567   64.3400 C   0  0  0  0  0  0  0  0  0  0  0  0
  -50.7017   58.6271   63.0274 C   0  0  0  0  0  0  0  0  0  0  0  0
  -50.3318   59.7106   62.0673 C   0  0  0  0  0  0  0  0  0  0  0  0
  -50.0019   59.1118   60.6991 C   0  0  0  0  0  0  0  0  0  0  0  0
  -50.6296   57.7556   60.4123 C   0  0  0  0  0  0  0  0  0  0  0  0
  -49.6374   56.6281   60.1543 C   0  0  0  0  0  0  0  0  0  0  0  0
  -48.4963   57.0221   59.2224 C   0  0  0  0  0  0  0  0  0  0  0  0
  -47.5680   55.8705   58.8701 C   0  0  0  0  0  0  0  0  0  0  0  0
  -47.0184   55.8874   57.4516 C   0  0  0  0  0  0  0  0  0  0  0  0
  -47.5876   56.9975   56.6226 C   0  0  0  0  0  0  0  0  0  0  0  0
  -43.0883   58.9138   64.5422 O   0  0  0  0  0  0  0  0  0  0  0  0
  -43.1023   57.4809   64.7251 C   0  0  0  0  0  0  0  0  0  0  0  0
  -41.7231   56.9446   65.0454 C   0  0  0  0  0  0  0  0  0  0  0  0
  -41.6429   55.5375   64.7811 O   0  0  0  0  0  0  0  0  0  0  0  0
  -41.7823   55.3779   63.8345 H   0  0  0  0  0  0  0  0  0  0  0  0
  -40.6311   57.6617   64.2865 C   0  0  0  0  0  0  0  0  0  0  0  0
  -39.7657   58.4140   65.1711 O   0  0  0  0  0  0  0  0  0  0  0  0
  -39.1862   59.9090   65.1013 P   0  0  0  0  0  0  0  0  0  0  0  0
  -37.6624   59.8348   65.1824 O   0  0  0  0  0  0  0  0  0  0  0  0
  -39.6834   60.6650   66.2716 O   0  0  0  0  0  0  0  0  0  0  0  0
  -39.4234   60.2074   67.0864 H   0  0  0  0  0  0  0  0  0  0  0  0
  -39.6066   60.6525   63.6957 O   0  0  0  0  0  0  0  0  0  0  0  0
  -38.8444   60.6304   62.4582 C   0  0  0  0  0  0  0  0  0  0  0  0
  -39.3996   59.5852   61.5225 C   0  0  0  0  0  0  0  0  0  0  0  0
  -38.4703   58.4436   61.1546 N   0  0  0  0  0  0  0  0  0  0  0  0
  -37.2395   58.4759   62.0027 C   0  0  0  0  0  0  0  0  0  0  0  0
  -38.0765   58.5915   59.7216 C   0  0  0  0  0  0  0  0  0  0  0  0
  -39.1577   57.1219   61.3477 C   0  0  0  0  0  0  0  0  0  0  0  0
 34 33  1  0  0  0
 34 35  1  0  0  0
 34 36  1  0  0  0
 34 37  1  0  0  0
 22 23  1  0  0  0
 22 25  1  0  0  0
 22 21  1  0  0  0
 23 24  1  0  0  0
 27 26  1  0  0  0
 27 28  2  0  0  0
 27 31  1  0  0  0
 27 29  1  0  0  0
 25 26  1  0  0  0
 32 33  1  0  0  0
 32 31  1  0  0  0
 29 30  1  0  0  0
 20 21  1  0  0  0
 20  2  1  0  0  0
  1  2  2  0  0  0
  2  3  1  0  0  0
  3  4  1  0  0  0
  4  5  1  0  0  0
  5  6  1  0  0  0
  6  7  1  0  0  0
  7  8  1  0  0  0
  8  9  1  0  0  0
  9 10  1  0  0  0
 10 11  2  0  0  0
 11 12  1  0  0  0
 12 13  1  0  0  0
 13 14  1  0  0  0
 14 15  1  0  0  0
 15 16  1  0  0  0
 16 17  1  0  0  0
 17 18  1  0  0  0
 18 19  1  0  0  0
M  CHG 1  28  -1
M  END
> <minimizedAffinity>
-7.77123

> <CNNscore>
0.6041392684

> <CNNaffinity>
6.8441667557

> <CNN_VS>
4.1348299980

> <CNNaffinity_variance>
0.2007431239

$$$$
