/media/chris/experiments/cd1a-new-docking/inputs/ligands/4x6e_ligand.pdb


 37 36  0  0  0  0  0  0  0  0999 V2000
  -40.2251   60.4571   65.7691 O   0  0  0  0  0  0  0  0  0  0  0  0
  -40.7903   59.4397   65.4525 C   0  0  0  0  0  0  0  0  0  0  0  0
  -41.7893   58.7057   66.2933 C   0  0  0  0  0  0  0  0  0  0  0  0
  -42.9689   59.5729   66.7167 C   0  0  0  0  0  0  0  0  0  0  0  0
  -44.2281   58.7935   67.0548 C   0  0  0  0  0  0  0  0  0  0  0  0
  -44.4185   57.5525   66.2004 C   0  0  0  0  0  0  0  0  0  0  0  0
  -45.8769   57.2712   65.8817 C   0  0  0  0  0  0  0  0  0  0  0  0
  -46.7753   58.4338   66.2405 C   0  0  0  0  0  0  0  0  0  0  0  0
  -47.7939   58.7998   65.1802 C   0  0  0  0  0  0  0  0  0  0  0  0
  -49.1635   58.3158   65.4668 C   0  0  0  0  0  0  0  0  0  0  0  0
  -50.2706   58.7326   64.8877 C   0  0  0  0  0  0  0  0  0  0  0  0
  -50.3925   59.7452   63.7957 C   0  0  0  0  0  0  0  0  0  0  0  0
  -51.1749   59.1594   62.6192 C   0  0  0  0  0  0  0  0  0  0  0  0
  -50.3659   58.9198   61.3528 C   0  0  0  0  0  0  0  0  0  0  0  0
  -50.2924   57.4664   60.9007 C   0  0  0  0  0  0  0  0  0  0  0  0
  -49.4947   57.2678   59.6160 C   0  0  0  0  0  0  0  0  0  0  0  0
  -48.5091   56.1118   59.6797 C   0  0  0  0  0  0  0  0  0  0  0  0
  -47.5176   56.0368   58.5284 C   0  0  0  0  0  0  0  0  0  0  0  0
  -47.9333   56.8634   57.3505 C   0  0  0  0  0  0  0  0  0  0  0  0
  -40.6155   58.8156   64.2839 O   0  0  0  0  0  0  0  0  0  0  0  0
  -41.7104   58.0245   63.7718 C   0  0  0  0  0  0  0  0  0  0  0  0
  -41.9239   58.2575   62.2911 C   0  0  0  0  0  0  0  0  0  0  0  0
  -41.9534   59.6590   61.9889 O   0  0  0  0  0  0  0  0  0  0  0  0
  -41.0942   60.0544   62.2042 H   0  0  0  0  0  0  0  0  0  0  0  0
  -40.8742   57.5819   61.4402 C   0  0  0  0  0  0  0  0  0  0  0  0
  -39.5399   58.0411   61.7661 O   0  0  0  0  0  0  0  0  0  0  0  0
  -38.5502   59.0813   61.0490 P   0  0  0  0  0  0  0  0  0  0  0  0
  -39.3750   60.2779   60.5780 O   0  0  0  0  0  0  0  0  0  0  0  0
  -37.9518   58.4270   59.8650 O   0  0  0  0  0  0  0  0  0  0  0  0
  -38.6573   58.1225   59.2728 H   0  0  0  0  0  0  0  0  0  0  0  0
  -37.3857   59.6137   62.0813 O   0  0  0  0  0  0  0  0  0  0  0  0
  -36.9366   58.9328   63.2846 C   0  0  0  0  0  0  0  0  0  0  0  0
  -35.5822   58.3088   63.0559 C   0  0  0  0  0  0  0  0  0  0  0  0
  -34.4060   58.9709   63.7493 N   0  0  0  0  0  0  0  0  0  0  0  0
  -34.7419   60.3797   64.1201 C   0  0  0  0  0  0  0  0  0  0  0  0
  -33.2428   58.9795   62.8128 C   0  0  0  0  0  0  0  0  0  0  0  0
  -34.0364   58.2168   64.9948 C   0  0  0  0  0  0  0  0  0  0  0  0
 34 33  1  0  0  0
 34 35  1  0  0  0
 34 36  1  0  0  0
 34 37  1  0  0  0
 22 23  1  0  0  0
 22 25  1  0  0  0
 22 21  1  0  0  0
 23 24  1  0  0  0
 27 26  1  0  0  0
 27 28  2  0  0  0
 27 31  1  0  0  0
 27 29  1  0  0  0
 25 26  1  0  0  0
 32 33  1  0  0  0
 32 31  1  0  0  0
 29 30  1  0  0  0
 20 21  1  0  0  0
 20  2  1  0  0  0
  1  2  2  0  0  0
  2  3  1  0  0  0
  3  4  1  0  0  0
  4  5  1  0  0  0
  5  6  1  0  0  0
  6  7  1  0  0  0
  7  8  1  0  0  0
  8  9  1  0  0  0
  9 10  1  0  0  0
 10 11  2  0  0  0
 11 12  1  0  0  0
 12 13  1  0  0  0
 13 14  1  0  0  0
 14 15  1  0  0  0
 15 16  1  0  0  0
 16 17  1  0  0  0
 17 18  1  0  0  0
 18 19  1  0  0  0
M  CHG 1  28  -1
M  END
> <minimizedAffinity>
-7.71010

> <CNNscore>
0.7851161361

> <CNNaffinity>
7.1077528000

> <CNN_VS>
5.5804114342

> <CNNaffinity_variance>
0.5829070807

$$$$
/media/chris/experiments/cd1a-new-docking/inputs/ligands/4x6e_ligand.pdb


 37 36  0  0  0  0  0  0  0  0999 V2000
  -43.0621   57.5210   63.7290 O   0  0  0  0  0  0  0  0  0  0  0  0
  -43.6183   58.5313   63.3760 C   0  0  0  0  0  0  0  0  0  0  0  0
  -44.6845   59.2480   64.1463 C   0  0  0  0  0  0  0  0  0  0  0  0
  -44.2137   59.7332   65.5121 C   0  0  0  0  0  0  0  0  0  0  0  0
  -44.8435   59.0031   66.6860 C   0  0  0  0  0  0  0  0  0  0  0  0
  -46.3610   59.0610   66.6900 C   0  0  0  0  0  0  0  0  0  0  0  0
  -47.0059   57.6857   66.6819 C   0  0  0  0  0  0  0  0  0  0  0  0
  -48.1926   57.6160   65.7468 C   0  0  0  0  0  0  0  0  0  0  0  0
  -48.5675   58.9326   65.0975 C   0  0  0  0  0  0  0  0  0  0  0  0
  -49.9489   59.3779   65.3901 C   0  0  0  0  0  0  0  0  0  0  0  0
  -50.8404   59.7734   64.5050 C   0  0  0  0  0  0  0  0  0  0  0  0
  -50.6783   59.8237   63.0205 C   0  0  0  0  0  0  0  0  0  0  0  0
  -50.9207   58.4392   62.4171 C   0  0  0  0  0  0  0  0  0  0  0  0
  -49.8587   57.9592   61.4388 C   0  0  0  0  0  0  0  0  0  0  0  0
  -50.3796   57.5783   60.0582 C   0  0  0  0  0  0  0  0  0  0  0  0
  -49.2979   57.5584   58.9832 C   0  0  0  0  0  0  0  0  0  0  0  0
  -48.2920   56.4302   59.1475 C   0  0  0  0  0  0  0  0  0  0  0  0
  -47.6714   55.9175   57.8565 C   0  0  0  0  0  0  0  0  0  0  0  0
  -47.3350   57.0182   56.8980 C   0  0  0  0  0  0  0  0  0  0  0  0
  -43.3530   59.1759   62.2360 O   0  0  0  0  0  0  0  0  0  0  0  0
  -42.2731   60.1354   62.2397 C   0  0  0  0  0  0  0  0  0  0  0  0
  -40.9899   59.5351   61.7056 C   0  0  0  0  0  0  0  0  0  0  0  0
  -40.5326   60.2445   60.5463 O   0  0  0  0  0  0  0  0  0  0  0  0
  -40.3227   61.1599   60.7892 H   0  0  0  0  0  0  0  0  0  0  0  0
  -39.8901   59.5017   62.7408 C   0  0  0  0  0  0  0  0  0  0  0  0
  -39.1538   60.7480   62.7842 O   0  0  0  0  0  0  0  0  0  0  0  0
  -37.8199   61.1883   63.5606 P   0  0  0  0  0  0  0  0  0  0  0  0
  -36.7558   60.1173   63.3267 O   0  0  0  0  0  0  0  0  0  0  0  0
  -38.1137   61.2512   65.0091 O   0  0  0  0  0  0  0  0  0  0  0  0
  -38.4470   60.3910   65.3091 H   0  0  0  0  0  0  0  0  0  0  0  0
  -37.2510   62.6300   63.0101 O   0  0  0  0  0  0  0  0  0  0  0  0
  -36.6948   63.6955   63.8276 C   0  0  0  0  0  0  0  0  0  0  0  0
  -35.2146   63.4815   64.0265 C   0  0  0  0  0  0  0  0  0  0  0  0
  -34.7562   63.1980   65.4449 N   0  0  0  0  0  0  0  0  0  0  0  0
  -34.6462   61.7249   65.6753 C   0  0  0  0  0  0  0  0  0  0  0  0
  -35.7611   63.7641   66.3936 C   0  0  0  0  0  0  0  0  0  0  0  0
  -33.4179   63.8301   65.7021 C   0  0  0  0  0  0  0  0  0  0  0  0
 34 33  1  0  0  0
 34 35  1  0  0  0
 34 36  1  0  0  0
 34 37  1  0  0  0
 22 23  1  0  0  0
 22 25  1  0  0  0
 22 21  1  0  0  0
 23 24  1  0  0  0
 27 26  1  0  0  0
 27 28  2  0  0  0
 27 31  1  0  0  0
 27 29  1  0  0  0
 25 26  1  0  0  0
 32 33  1  0  0  0
 32 31  1  0  0  0
 29 30  1  0  0  0
 20 21  1  0  0  0
 20  2  1  0  0  0
  1  2  2  0  0  0
  2  3  1  0  0  0
  3  4  1  0  0  0
  4  5  1  0  0  0
  5  6  1  0  0  0
  6  7  1  0  0  0
  7  8  1  0  0  0
  8  9  1  0  0  0
  9 10  1  0  0  0
 10 11  2  0  0  0
 11 12  1  0  0  0
 12 13  1  0  0  0
 13 14  1  0  0  0
 14 15  1  0  0  0
 15 16  1  0  0  0
 16 17  1  0  0  0
 17 18  1  0  0  0
 18 19  1  0  0  0
M  CHG 1  28  -1
M  END
> <minimizedAffinity>
-7.90607

> <CNNscore>
0.7523304224

> <CNNaffinity>
6.6116323471

> <CNN_VS>
4.9741320610

> <CNNaffinity_variance>
0.2470748723

$$$$
/media/chris/experiments/cd1a-new-docking/inputs/ligands/4x6e_ligand.pdb


 37 36  0  0  0  0  0  0  0  0999 V2000
  -42.4985   55.7615   64.8986 O   0  0  0  0  0  0  0  0  0  0  0  0
  -42.6799   56.9051   65.2365 C   0  0  0  0  0  0  0  0  0  0  0  0
  -43.4091   57.3388   66.4710 C   0  0  0  0  0  0  0  0  0  0  0  0
  -44.9246   57.2616   66.3303 C   0  0  0  0  0  0  0  0  0  0  0  0
  -45.6609   58.5002   66.8113 C   0  0  0  0  0  0  0  0  0  0  0  0
  -46.1117   59.4116   65.6834 C   0  0  0  0  0  0  0  0  0  0  0  0
  -47.3506   60.2180   66.0331 C   0  0  0  0  0  0  0  0  0  0  0  0
  -48.3726   60.2086   64.9183 C   0  0  0  0  0  0  0  0  0  0  0  0
  -48.7081   58.8341   64.3760 C   0  0  0  0  0  0  0  0  0  0  0  0
  -50.1562   58.6031   64.1718 C   0  0  0  0  0  0  0  0  0  0  0  0
  -50.8656   58.9952   63.1336 C   0  0  0  0  0  0  0  0  0  0  0  0
  -50.3706   59.7166   61.9223 C   0  0  0  0  0  0  0  0  0  0  0  0
  -49.7324   58.7281   60.9449 C   0  0  0  0  0  0  0  0  0  0  0  0
  -50.4841   57.4184   60.7582 C   0  0  0  0  0  0  0  0  0  0  0  0
  -49.6700   56.2916   60.1338 C   0  0  0  0  0  0  0  0  0  0  0  0
  -48.3775   56.7655   59.4772 C   0  0  0  0  0  0  0  0  0  0  0  0
  -48.5912   57.4947   58.1603 C   0  0  0  0  0  0  0  0  0  0  0  0
  -47.7289   57.0148   57.0025 C   0  0  0  0  0  0  0  0  0  0  0  0
  -47.2005   55.6286   57.2089 C   0  0  0  0  0  0  0  0  0  0  0  0
  -42.2403   57.9681   64.5564 O   0  0  0  0  0  0  0  0  0  0  0  0
  -43.0876   58.4988   63.5137 C   0  0  0  0  0  0  0  0  0  0  0  0
  -42.3293   59.4404   62.6022 C   0  0  0  0  0  0  0  0  0  0  0  0
  -41.7795   60.5404   63.3399 O   0  0  0  0  0  0  0  0  0  0  0  0
  -41.1341   60.2080   63.9832 H   0  0  0  0  0  0  0  0  0  0  0  0
  -41.2262   58.7458   61.8387 C   0  0  0  0  0  0  0  0  0  0  0  0
  -40.1068   59.6296   61.5871 O   0  0  0  0  0  0  0  0  0  0  0  0
  -38.7037   59.8365   62.3383 P   0  0  0  0  0  0  0  0  0  0  0  0
  -38.9847   60.0475   63.8250 O   0  0  0  0  0  0  0  0  0  0  0  0
  -38.0555   61.0543   61.8044 O   0  0  0  0  0  0  0  0  0  0  0  0
  -38.6491   61.8130   61.9184 H   0  0  0  0  0  0  0  0  0  0  0  0
  -37.7284   58.5236   62.1643 O   0  0  0  0  0  0  0  0  0  0  0  0
  -36.7917   58.0198   63.1553 C   0  0  0  0  0  0  0  0  0  0  0  0
  -35.3735   58.2202   62.6814 C   0  0  0  0  0  0  0  0  0  0  0  0
  -34.4492   58.9808   63.6140 N   0  0  0  0  0  0  0  0  0  0  0  0
  -34.2935   58.2493   64.9085 C   0  0  0  0  0  0  0  0  0  0  0  0
  -35.0433   60.3242   63.8839 C   0  0  0  0  0  0  0  0  0  0  0  0
  -33.0945   59.1525   62.9882 C   0  0  0  0  0  0  0  0  0  0  0  0
 34 33  1  0  0  0
 34 35  1  0  0  0
 34 36  1  0  0  0
 34 37  1  0  0  0
 22 23  1  0  0  0
 22 25  1  0  0  0
 22 21  1  0  0  0
 23 24  1  0  0  0
 27 26  1  0  0  0
 27 28  2  0  0  0
 27 31  1  0  0  0
 27 29  1  0  0  0
 25 26  1  0  0  0
 32 33  1  0  0  0
 32 31  1  0  0  0
 29 30  1  0  0  0
 20 21  1  0  0  0
 20  2  1  0  0  0
  1  2  2  0  0  0
  2  3  1  0  0  0
  3  4  1  0  0  0
  4  5  1  0  0  0
  5  6  1  0  0  0
  6  7  1  0  0  0
  7  8  1  0  0  0
  8  9  1  0  0  0
  9 10  1  0  0  0
 10 11  2  0  0  0
 11 12  1  0  0  0
 12 13  1  0  0  0
 13 14  1  0  0  0
 14 15  1  0  0  0
 15 16  1  0  0  0
 16 17  1  0  0  0
 17 18  1  0  0  0
 18 19  1  0  0  0
M  CHG 1  28  -1
M  END
> <minimizedAffinity>
-7.67469

> <CNNscore>
0.7403496504

> <CNNaffinity>
6.9223785400

> <CNN_VS>
5.1249804497

> <CNNaffinity_variance>
0.3192710280

$$$$
/media/chris/experiments/cd1a-new-docking/inputs/ligands/4x6e_ligand.pdb


 37 36  0  0  0  0  0  0  0  0999 V2000
  -41.7548   60.9370   65.1991 O   0  0  0  0  0  0  0  0  0  0  0  0
  -41.3128   60.1555   66.0045 C   0  0  0  0  0  0  0  0  0  0  0  0
  -42.1084   59.4670   67.0707 C   0  0  0  0  0  0  0  0  0  0  0  0
  -43.6030   59.4321   66.7751 C   0  0  0  0  0  0  0  0  0  0  0  0
  -44.0593   58.2049   66.0048 C   0  0  0  0  0  0  0  0  0  0  0  0
  -45.5661   58.0155   66.0072 C   0  0  0  0  0  0  0  0  0  0  0  0
  -46.2556   58.7400   64.8639 C   0  0  0  0  0  0  0  0  0  0  0  0
  -46.9853   59.9801   65.3299 C   0  0  0  0  0  0  0  0  0  0  0  0
  -48.1679   59.7166   66.2397 C   0  0  0  0  0  0  0  0  0  0  0  0
  -49.0065   58.5700   65.8224 C   0  0  0  0  0  0  0  0  0  0  0  0
  -50.1292   58.6387   65.1371 C   0  0  0  0  0  0  0  0  0  0  0  0
  -50.7830   59.8685   64.5962 C   0  0  0  0  0  0  0  0  0  0  0  0
  -50.8361   59.8082   63.0687 C   0  0  0  0  0  0  0  0  0  0  0  0
  -50.7062   58.4170   62.4662 C   0  0  0  0  0  0  0  0  0  0  0  0
  -50.1764   58.3804   61.0379 C   0  0  0  0  0  0  0  0  0  0  0  0
  -49.6821   57.0035   60.6066 C   0  0  0  0  0  0  0  0  0  0  0  0
  -48.9097   57.0127   59.2970 C   0  0  0  0  0  0  0  0  0  0  0  0
  -47.8137   55.9641   59.1795 C   0  0  0  0  0  0  0  0  0  0  0  0
  -47.1484   55.9688   57.8376 C   0  0  0  0  0  0  0  0  0  0  0  0
  -40.0333   59.7740   66.0573 O   0  0  0  0  0  0  0  0  0  0  0  0
  -39.6609   58.5652   65.3595 C   0  0  0  0  0  0  0  0  0  0  0  0
  -38.1573   58.4132   65.2677 C   0  0  0  0  0  0  0  0  0  0  0  0
  -37.7861   57.6518   64.1106 O   0  0  0  0  0  0  0  0  0  0  0  0
  -38.0597   58.1261   63.3099 H   0  0  0  0  0  0  0  0  0  0  0  0
  -37.4400   59.7425   65.2461 C   0  0  0  0  0  0  0  0  0  0  0  0
  -37.2365   60.2224   63.8949 O   0  0  0  0  0  0  0  0  0  0  0  0
  -38.0896   61.2080   62.9585 P   0  0  0  0  0  0  0  0  0  0  0  0
  -37.3162   62.5175   62.8140 O   0  0  0  0  0  0  0  0  0  0  0  0
  -39.3798   61.4943   63.6232 O   0  0  0  0  0  0  0  0  0  0  0  0
  -39.2143   61.8726   64.5010 H   0  0  0  0  0  0  0  0  0  0  0  0
  -38.3254   60.5639   61.4636 O   0  0  0  0  0  0  0  0  0  0  0  0
  -39.5592   59.9699   60.9759 C   0  0  0  0  0  0  0  0  0  0  0  0
  -39.6517   58.5284   61.4114 C   0  0  0  0  0  0  0  0  0  0  0  0
  -41.0485   57.9542   61.5591 N   0  0  0  0  0  0  0  0  0  0  0  0
  -40.9913   56.5836   62.1535 C   0  0  0  0  0  0  0  0  0  0  0  0
  -41.6759   57.8709   60.2064 C   0  0  0  0  0  0  0  0  0  0  0  0
  -41.8878   58.8315   62.4436 C   0  0  0  0  0  0  0  0  0  0  0  0
 34 33  1  0  0  0
 34 35  1  0  0  0
 34 36  1  0  0  0
 34 37  1  0  0  0
 22 23  1  0  0  0
 22 25  1  0  0  0
 22 21  1  0  0  0
 23 24  1  0  0  0
 27 26  1  0  0  0
 27 28  2  0  0  0
 27 31  1  0  0  0
 27 29  1  0  0  0
 25 26  1  0  0  0
 32 33  1  0  0  0
 32 31  1  0  0  0
 29 30  1  0  0  0
 20 21  1  0  0  0
 20  2  1  0  0  0
  1  2  2  0  0  0
  2  3  1  0  0  0
  3  4  1  0  0  0
  4  5  1  0  0  0
  5  6  1  0  0  0
  6  7  1  0  0  0
  7  8  1  0  0  0
  8  9  1  0  0  0
  9 10  1  0  0  0
 10 11  2  0  0  0
 11 12  1  0  0  0
 12 13  1  0  0  0
 13 14  1  0  0  0
 14 15  1  0  0  0
 15 16  1  0  0  0
 16 17  1  0  0  0
 17 18  1  0  0  0
 18 19  1  0  0  0
M  CHG 1  28  -1
M  END
> <minimizedAffinity>
-7.86062

> <CNNscore>
0.7284953594

> <CNNaffinity>
7.0216856003

> <CNN_VS>
5.1152653694

> <CNNaffinity_variance>
0.1918341517

$$$$
/media/chris/experiments/cd1a-new-docking/inputs/ligands/4x6e_ligand.pdb


 37 36  0  0  0  0  0  0  0  0999 V2000
  -41.1386   56.5746   63.6489 O   0  0  0  0  0  0  0  0  0  0  0  0
  -42.2307   56.9293   64.0181 C   0  0  0  0  0  0  0  0  0  0  0  0
  -42.9728   56.3690   65.1925 C   0  0  0  0  0  0  0  0  0  0  0  0
  -43.4044   57.4347   66.1928 C   0  0  0  0  0  0  0  0  0  0  0  0
  -44.9043   57.5055   66.4226 C   0  0  0  0  0  0  0  0  0  0  0  0
  -45.5460   58.7545   65.8445 C   0  0  0  0  0  0  0  0  0  0  0  0
  -47.0296   58.8556   66.1548 C   0  0  0  0  0  0  0  0  0  0  0  0
  -47.8617   57.9542   65.2702 C   0  0  0  0  0  0  0  0  0  0  0  0
  -49.3584   58.0681   65.4765 C   0  0  0  0  0  0  0  0  0  0  0  0
  -49.8990   59.4254   65.2363 C   0  0  0  0  0  0  0  0  0  0  0  0
  -50.0816   59.9909   64.0609 C   0  0  0  0  0  0  0  0  0  0  0  0
  -49.8275   59.3859   62.7185 C   0  0  0  0  0  0  0  0  0  0  0  0
  -50.9803   58.4574   62.3326 C   0  0  0  0  0  0  0  0  0  0  0  0
  -50.7960   57.6968   61.0277 C   0  0  0  0  0  0  0  0  0  0  0  0
  -50.0372   58.4521   59.9433 C   0  0  0  0  0  0  0  0  0  0  0  0
  -49.2583   57.5426   58.9987 C   0  0  0  0  0  0  0  0  0  0  0  0
  -48.5652   56.3836   59.6973 C   0  0  0  0  0  0  0  0  0  0  0  0
  -47.3785   55.7900   58.9532 C   0  0  0  0  0  0  0  0  0  0  0  0
  -47.2952   56.2534   57.5313 C   0  0  0  0  0  0  0  0  0  0  0  0
  -42.9440   57.8963   63.4335 O   0  0  0  0  0  0  0  0  0  0  0  0
  -42.2456   59.0891   63.0136 C   0  0  0  0  0  0  0  0  0  0  0  0
  -42.6813   59.5358   61.6341 C   0  0  0  0  0  0  0  0  0  0  0  0
  -42.9013   60.9523   61.5967 O   0  0  0  0  0  0  0  0  0  0  0  0
  -42.0682   61.4140   61.7803 H   0  0  0  0  0  0  0  0  0  0  0  0
  -41.6902   59.1525   60.5603 C   0  0  0  0  0  0  0  0  0  0  0  0
  -40.4391   59.8681   60.7024 O   0  0  0  0  0  0  0  0  0  0  0  0
  -38.9783   59.4058   61.1801 P   0  0  0  0  0  0  0  0  0  0  0  0
  -38.1427   59.1044   59.9372 O   0  0  0  0  0  0  0  0  0  0  0  0
  -39.1099   58.1629   61.9715 O   0  0  0  0  0  0  0  0  0  0  0  0
  -39.5539   57.4853   61.4378 H   0  0  0  0  0  0  0  0  0  0  0  0
  -38.2288   60.5833   62.0500 O   0  0  0  0  0  0  0  0  0  0  0  0
  -37.5244   60.3969   63.3079 C   0  0  0  0  0  0  0  0  0  0  0  0
  -37.1528   61.7336   63.9004 C   0  0  0  0  0  0  0  0  0  0  0  0
  -35.8893   61.7743   64.7399 N   0  0  0  0  0  0  0  0  0  0  0  0
  -36.2285   61.8760   66.1923 C   0  0  0  0  0  0  0  0  0  0  0  0
  -35.0907   62.9721   64.3428 C   0  0  0  0  0  0  0  0  0  0  0  0
  -35.0702   60.5346   64.5190 C   0  0  0  0  0  0  0  0  0  0  0  0
 34 33  1  0  0  0
 34 35  1  0  0  0
 34 36  1  0  0  0
 34 37  1  0  0  0
 22 23  1  0  0  0
 22 25  1  0  0  0
 22 21  1  0  0  0
 23 24  1  0  0  0
 27 26  1  0  0  0
 27 28  2  0  0  0
 27 31  1  0  0  0
 27 29  1  0  0  0
 25 26  1  0  0  0
 32 33  1  0  0  0
 32 31  1  0  0  0
 29 30  1  0  0  0
 20 21  1  0  0  0
 20  2  1  0  0  0
  1  2  2  0  0  0
  2  3  1  0  0  0
  3  4  1  0  0  0
  4  5  1  0  0  0
  5  6  1  0  0  0
  6  7  1  0  0  0
  7  8  1  0  0  0
  8  9  1  0  0  0
  9 10  1  0  0  0
 10 11  2  0  0  0
 11 12  1  0  0  0
 12 13  1  0  0  0
 13 14  1  0  0  0
 14 15  1  0  0  0
 15 16  1  0  0  0
 16 17  1  0  0  0
 17 18  1  0  0  0
 18 19  1  0  0  0
M  CHG 1  28  -1
M  END
> <minimizedAffinity>
-7.72090

> <CNNscore>
0.7126268148

> <CNNaffinity>
6.9519515038

> <CNN_VS>
4.9541468620

> <CNNaffinity_variance>
0.3027087748

$$$$
/media/chris/experiments/cd1a-new-docking/inputs/ligands/4x6e_ligand.pdb


 37 36  0  0  0  0  0  0  0  0999 V2000
  -42.8498   56.1221   64.9896 O   0  0  0  0  0  0  0  0  0  0  0  0
  -42.8828   57.3278   64.9800 C   0  0  0  0  0  0  0  0  0  0  0  0
  -44.0933   58.1639   65.2614 C   0  0  0  0  0  0  0  0  0  0  0  0
  -44.8375   58.5851   63.9999 C   0  0  0  0  0  0  0  0  0  0  0  0
  -46.1551   59.2951   64.2591 C   0  0  0  0  0  0  0  0  0  0  0  0
  -46.3438   59.7093   65.7078 C   0  0  0  0  0  0  0  0  0  0  0  0
  -47.7733   59.5368   66.1916 C   0  0  0  0  0  0  0  0  0  0  0  0
  -48.3981   58.2561   65.6847 C   0  0  0  0  0  0  0  0  0  0  0  0
  -49.9107   58.2773   65.6009 C   0  0  0  0  0  0  0  0  0  0  0  0
  -50.4824   59.6202   65.3523 C   0  0  0  0  0  0  0  0  0  0  0  0
  -50.9871   60.0501   64.2142 C   0  0  0  0  0  0  0  0  0  0  0  0
  -51.1338   59.2787   62.9429 C   0  0  0  0  0  0  0  0  0  0  0  0
  -49.8097   59.2687   62.1772 C   0  0  0  0  0  0  0  0  0  0  0  0
  -49.3222   57.8965   61.7357 C   0  0  0  0  0  0  0  0  0  0  0  0
  -50.0050   57.3395   60.4924 C   0  0  0  0  0  0  0  0  0  0  0  0
  -49.0448   56.6551   59.5251 C   0  0  0  0  0  0  0  0  0  0  0  0
  -48.5854   57.5482   58.3836 C   0  0  0  0  0  0  0  0  0  0  0  0
  -48.0817   56.8184   57.1474 C   0  0  0  0  0  0  0  0  0  0  0  0
  -47.0505   55.7802   57.4671 C   0  0  0  0  0  0  0  0  0  0  0  0
  -41.8268   58.1061   64.7255 O   0  0  0  0  0  0  0  0  0  0  0  0
  -40.7182   57.5239   64.0054 C   0  0  0  0  0  0  0  0  0  0  0  0
  -39.4539   58.3405   64.1699 C   0  0  0  0  0  0  0  0  0  0  0  0
  -38.4559   57.9422   63.2204 O   0  0  0  0  0  0  0  0  0  0  0  0
  -38.7763   58.1172   62.3217 H   0  0  0  0  0  0  0  0  0  0  0  0
  -39.7021   59.8255   64.0452 C   0  0  0  0  0  0  0  0  0  0  0  0
  -38.6698   60.4804   63.2686 O   0  0  0  0  0  0  0  0  0  0  0  0
  -37.4791   61.4762   63.6765 P   0  0  0  0  0  0  0  0  0  0  0  0
  -37.8301   62.1154   65.0189 O   0  0  0  0  0  0  0  0  0  0  0  0
  -37.3845   62.5441   62.6572 O   0  0  0  0  0  0  0  0  0  0  0  0
  -38.2377   63.0004   62.5868 H   0  0  0  0  0  0  0  0  0  0  0  0
  -36.0503   60.6759   63.8278 O   0  0  0  0  0  0  0  0  0  0  0  0
  -34.8942   61.1302   64.5829 C   0  0  0  0  0  0  0  0  0  0  0  0
  -34.1183   62.1491   63.7856 C   0  0  0  0  0  0  0  0  0  0  0  0
  -33.7889   63.4521   64.4902 N   0  0  0  0  0  0  0  0  0  0  0  0
  -33.2436   63.1854   65.8565 C   0  0  0  0  0  0  0  0  0  0  0  0
  -35.0407   64.2567   64.6156 C   0  0  0  0  0  0  0  0  0  0  0  0
  -32.7724   64.2323   63.7064 C   0  0  0  0  0  0  0  0  0  0  0  0
 34 33  1  0  0  0
 34 35  1  0  0  0
 34 36  1  0  0  0
 34 37  1  0  0  0
 22 23  1  0  0  0
 22 25  1  0  0  0
 22 21  1  0  0  0
 23 24  1  0  0  0
 27 26  1  0  0  0
 27 28  2  0  0  0
 27 31  1  0  0  0
 27 29  1  0  0  0
 25 26  1  0  0  0
 32 33  1  0  0  0
 32 31  1  0  0  0
 29 30  1  0  0  0
 20 21  1  0  0  0
 20  2  1  0  0  0
  1  2  2  0  0  0
  2  3  1  0  0  0
  3  4  1  0  0  0
  4  5  1  0  0  0
  5  6  1  0  0  0
  6  7  1  0  0  0
  7  8  1  0  0  0
  8  9  1  0  0  0
  9 10  1  0  0  0
 10 11  2  0  0  0
 11 12  1  0  0  0
 12 13  1  0  0  0
 13 14  1  0  0  0
 14 15  1  0  0  0
 15 16  1  0  0  0
 16 17  1  0  0  0
 17 18  1  0  0  0
 18 19  1  0  0  0
M  CHG 1  28  -1
M  END
> <minimizedAffinity>
-7.89796

> <CNNscore>
0.6418196559

> <CNNaffinity>
6.3269467354

> <CNN_VS>
4.0607585907

> <CNNaffinity_variance>
0.0977800339

$$$$
/media/chris/experiments/cd1a-new-docking/inputs/ligands/4x6e_ligand.pdb


 37 36  0  0  0  0  0  0  0  0999 V2000
  -39.8007   60.3032   66.4466 O   0  0  0  0  0  0  0  0  0  0  0  0
  -40.9069   60.1555   65.9891 C   0  0  0  0  0  0  0  0  0  0  0  0
  -41.9009   59.1292   66.4391 C   0  0  0  0  0  0  0  0  0  0  0  0
  -43.1040   59.7329   67.1538 C   0  0  0  0  0  0  0  0  0  0  0  0
  -44.4441   59.1869   66.6918 C   0  0  0  0  0  0  0  0  0  0  0  0
  -44.8529   59.6751   65.3132 C   0  0  0  0  0  0  0  0  0  0  0  0
  -46.3500   59.5835   65.0725 C   0  0  0  0  0  0  0  0  0  0  0  0
  -47.1501   59.9236   66.3101 C   0  0  0  0  0  0  0  0  0  0  0  0
  -48.6531   59.9040   66.1197 C   0  0  0  0  0  0  0  0  0  0  0  0
  -49.1732   58.6385   65.5541 C   0  0  0  0  0  0  0  0  0  0  0  0
  -50.1161   58.5263   64.6413 C   0  0  0  0  0  0  0  0  0  0  0  0
  -50.8378   59.6356   63.9476 C   0  0  0  0  0  0  0  0  0  0  0  0
  -50.7463   59.4562   62.4313 C   0  0  0  0  0  0  0  0  0  0  0  0
  -50.1934   58.1174   61.9653 C   0  0  0  0  0  0  0  0  0  0  0  0
  -50.8675   57.5376   60.7277 C   0  0  0  0  0  0  0  0  0  0  0  0
  -50.1413   57.8671   59.4277 C   0  0  0  0  0  0  0  0  0  0  0  0
  -48.9076   57.0131   59.1820 C   0  0  0  0  0  0  0  0  0  0  0  0
  -48.0649   57.4160   57.9812 C   0  0  0  0  0  0  0  0  0  0  0  0
  -48.2341   56.4889   56.8170 C   0  0  0  0  0  0  0  0  0  0  0  0
  -41.4204   60.9040   65.0084 O   0  0  0  0  0  0  0  0  0  0  0  0
  -41.5788   60.2951   63.7081 C   0  0  0  0  0  0  0  0  0  0  0  0
  -40.5702   60.8300   62.7136 C   0  0  0  0  0  0  0  0  0  0  0  0
  -39.2699   60.9417   63.3079 O   0  0  0  0  0  0  0  0  0  0  0  0
  -38.9553   60.0610   63.5654 H   0  0  0  0  0  0  0  0  0  0  0  0
  -40.4814   59.9838   61.4653 C   0  0  0  0  0  0  0  0  0  0  0  0
  -40.8800   58.6139   61.7141 O   0  0  0  0  0  0  0  0  0  0  0  0
  -40.2707   57.2079   61.2371 P   0  0  0  0  0  0  0  0  0  0  0  0
  -40.2497   57.1903   59.7096 O   0  0  0  0  0  0  0  0  0  0  0  0
  -41.1587   56.1225   61.7079 O   0  0  0  0  0  0  0  0  0  0  0  0
  -42.0558   56.2686   61.3689 H   0  0  0  0  0  0  0  0  0  0  0  0
  -38.7363   56.9978   61.7908 O   0  0  0  0  0  0  0  0  0  0  0  0
  -38.1139   57.7345   62.8784 C   0  0  0  0  0  0  0  0  0  0  0  0
  -36.7877   58.2996   62.4335 C   0  0  0  0  0  0  0  0  0  0  0  0
  -35.6851   58.3397   63.4753 N   0  0  0  0  0  0  0  0  0  0  0  0
  -35.8817   57.2575   64.4880 C   0  0  0  0  0  0  0  0  0  0  0  0
  -35.7279   59.6636   64.1651 C   0  0  0  0  0  0  0  0  0  0  0  0
  -34.3418   58.1592   62.8277 C   0  0  0  0  0  0  0  0  0  0  0  0
 34 33  1  0  0  0
 34 35  1  0  0  0
 34 36  1  0  0  0
 34 37  1  0  0  0
 22 23  1  0  0  0
 22 25  1  0  0  0
 22 21  1  0  0  0
 23 24  1  0  0  0
 27 26  1  0  0  0
 27 28  2  0  0  0
 27 31  1  0  0  0
 27 29  1  0  0  0
 25 26  1  0  0  0
 32 33  1  0  0  0
 32 31  1  0  0  0
 29 30  1  0  0  0
 20 21  1  0  0  0
 20  2  1  0  0  0
  1  2  2  0  0  0
  2  3  1  0  0  0
  3  4  1  0  0  0
  4  5  1  0  0  0
  5  6  1  0  0  0
  6  7  1  0  0  0
  7  8  1  0  0  0
  8  9  1  0  0  0
  9 10  1  0  0  0
 10 11  2  0  0  0
 11 12  1  0  0  0
 12 13  1  0  0  0
 13 14  1  0  0  0
 14 15  1  0  0  0
 15 16  1  0  0  0
 16 17  1  0  0  0
 17 18  1  0  0  0
 18 19  1  0  0  0
M  CHG 1  28  -1
M  END
> <minimizedAffinity>
-7.97076

> <CNNscore>
0.6188755035

> <CNNaffinity>
6.8369474411

> <CNN_VS>
4.2312192917

> <CNNaffinity_variance>
0.5061351061

$$$$
/media/chris/experiments/cd1a-new-docking/inputs/ligands/4x6e_ligand.pdb


 37 36  0  0  0  0  0  0  0  0999 V2000
  -41.7615   60.1378   60.1228 O   0  0  0  0  0  0  0  0  0  0  0  0
  -41.7038   59.7984   61.2788 C   0  0  0  0  0  0  0  0  0  0  0  0
  -42.7582   60.0559   62.3111 C   0  0  0  0  0  0  0  0  0  0  0  0
  -43.4674   61.3917   62.1235 C   0  0  0  0  0  0  0  0  0  0  0  0
  -44.4982   61.7079   63.1935 C   0  0  0  0  0  0  0  0  0  0  0  0
  -45.0200   60.4765   63.9128 C   0  0  0  0  0  0  0  0  0  0  0  0
  -46.5123   60.5403   64.1893 C   0  0  0  0  0  0  0  0  0  0  0  0
  -47.0425   59.2473   64.7679 C   0  0  0  0  0  0  0  0  0  0  0  0
  -48.1760   59.4132   65.7596 C   0  0  0  0  0  0  0  0  0  0  0  0
  -49.3039   58.4776   65.5487 C   0  0  0  0  0  0  0  0  0  0  0  0
  -50.3846   58.7139   64.8339 C   0  0  0  0  0  0  0  0  0  0  0  0
  -50.6968   59.9469   64.0497 C   0  0  0  0  0  0  0  0  0  0  0  0
  -50.7745   59.6168   62.5582 C   0  0  0  0  0  0  0  0  0  0  0  0
  -50.8259   58.1340   62.2204 C   0  0  0  0  0  0  0  0  0  0  0  0
  -49.7523   57.6568   61.2499 C   0  0  0  0  0  0  0  0  0  0  0  0
  -50.1740   57.7387   59.7865 C   0  0  0  0  0  0  0  0  0  0  0  0
  -49.0483   57.4454   58.8075 C   0  0  0  0  0  0  0  0  0  0  0  0
  -48.1862   56.2392   59.1484 C   0  0  0  0  0  0  0  0  0  0  0  0
  -47.2757   55.8421   58.0274 C   0  0  0  0  0  0  0  0  0  0  0  0
  -40.6824   59.1227   61.8133 O   0  0  0  0  0  0  0  0  0  0  0  0
  -39.8759   58.3112   60.9314 C   0  0  0  0  0  0  0  0  0  0  0  0
  -38.4890   58.8909   60.7505 C   0  0  0  0  0  0  0  0  0  0  0  0
  -38.5492   60.3002   60.4925 O   0  0  0  0  0  0  0  0  0  0  0  0
  -38.9341   60.7532   61.2590 H   0  0  0  0  0  0  0  0  0  0  0  0
  -37.5937   58.6355   61.9402 C   0  0  0  0  0  0  0  0  0  0  0  0
  -37.3480   59.8447   62.6984 O   0  0  0  0  0  0  0  0  0  0  0  0
  -37.4858   60.1871   64.2603 P   0  0  0  0  0  0  0  0  0  0  0  0
  -38.3364   59.0996   64.9143 O   0  0  0  0  0  0  0  0  0  0  0  0
  -38.1875   61.4817   64.4014 O   0  0  0  0  0  0  0  0  0  0  0  0
  -39.0490   61.4326   63.9583 H   0  0  0  0  0  0  0  0  0  0  0  0
  -36.0171   60.2276   64.9995 O   0  0  0  0  0  0  0  0  0  0  0  0
  -34.9303   61.1412   64.6876 C   0  0  0  0  0  0  0  0  0  0  0  0
  -34.5212   61.9056   65.9223 C   0  0  0  0  0  0  0  0  0  0  0  0
  -34.3757   63.4084   65.7708 N   0  0  0  0  0  0  0  0  0  0  0  0
  -35.1325   64.1191   66.8466 C   0  0  0  0  0  0  0  0  0  0  0  0
  -34.9275   63.8100   64.4425 C   0  0  0  0  0  0  0  0  0  0  0  0
  -32.9298   63.8081   65.8504 C   0  0  0  0  0  0  0  0  0  0  0  0
 34 33  1  0  0  0
 34 35  1  0  0  0
 34 36  1  0  0  0
 34 37  1  0  0  0
 22 23  1  0  0  0
 22 25  1  0  0  0
 22 21  1  0  0  0
 23 24  1  0  0  0
 27 26  1  0  0  0
 27 28  2  0  0  0
 27 31  1  0  0  0
 27 29  1  0  0  0
 25 26  1  0  0  0
 32 33  1  0  0  0
 32 31  1  0  0  0
 29 30  1  0  0  0
 20 21  1  0  0  0
 20  2  1  0  0  0
  1  2  2  0  0  0
  2  3  1  0  0  0
  3  4  1  0  0  0
  4  5  1  0  0  0
  5  6  1  0  0  0
  6  7  1  0  0  0
  7  8  1  0  0  0
  8  9  1  0  0  0
  9 10  1  0  0  0
 10 11  2  0  0  0
 11 12  1  0  0  0
 12 13  1  0  0  0
 13 14  1  0  0  0
 14 15  1  0  0  0
 15 16  1  0  0  0
 16 17  1  0  0  0
 17 18  1  0  0  0
 18 19  1  0  0  0
M  CHG 1  28  -1
M  END
> <minimizedAffinity>
-8.01555

> <CNNscore>
0.5967172384

> <CNNaffinity>
6.3716130257

> <CNN_VS>
3.8020513058

> <CNNaffinity_variance>
0.1962912977

$$$$
/media/chris/experiments/cd1a-new-docking/inputs/ligands/4x6e_ligand.pdb


 37 36  0  0  0  0  0  0  0  0999 V2000
  -41.2674   57.2752   64.9340 O   0  0  0  0  0  0  0  0  0  0  0  0
  -41.7015   58.2889   65.4226 C   0  0  0  0  0  0  0  0  0  0  0  0
  -42.8501   58.3663   66.3810 C   0  0  0  0  0  0  0  0  0  0  0  0
  -43.9336   57.3312   66.1029 C   0  0  0  0  0  0  0  0  0  0  0  0
  -45.1569   57.8828   65.3911 C   0  0  0  0  0  0  0  0  0  0  0  0
  -45.0291   59.3493   65.0179 C   0  0  0  0  0  0  0  0  0  0  0  0
  -46.3519   60.0935   65.0802 C   0  0  0  0  0  0  0  0  0  0  0  0
  -47.1175   59.7940   66.3497 C   0  0  0  0  0  0  0  0  0  0  0  0
  -48.6217   59.9321   66.2316 C   0  0  0  0  0  0  0  0  0  0  0  0
  -49.3056   58.7042   65.7660 C   0  0  0  0  0  0  0  0  0  0  0  0
  -50.2883   58.6480   64.8909 C   0  0  0  0  0  0  0  0  0  0  0  0
  -50.9018   59.7897   64.1473 C   0  0  0  0  0  0  0  0  0  0  0  0
  -50.6243   59.6525   62.6494 C   0  0  0  0  0  0  0  0  0  0  0  0
  -50.7426   58.2420   62.0909 C   0  0  0  0  0  0  0  0  0  0  0  0
  -49.4945   57.7200   61.3896 C   0  0  0  0  0  0  0  0  0  0  0  0
  -49.5109   57.9318   59.8792 C   0  0  0  0  0  0  0  0  0  0  0  0
  -48.8343   56.8171   59.0972 C   0  0  0  0  0  0  0  0  0  0  0  0
  -48.1941   57.2389   57.7832 C   0  0  0  0  0  0  0  0  0  0  0  0
  -47.0865   56.3246   57.3583 C   0  0  0  0  0  0  0  0  0  0  0  0
  -41.2070   59.5078   65.1875 O   0  0  0  0  0  0  0  0  0  0  0  0
  -40.2526   60.0418   66.1314 C   0  0  0  0  0  0  0  0  0  0  0  0
  -38.9086   60.2983   65.4831 C   0  0  0  0  0  0  0  0  0  0  0  0
  -38.2128   61.3639   66.1440 O   0  0  0  0  0  0  0  0  0  0  0  0
  -38.0268   61.1088   67.0612 H   0  0  0  0  0  0  0  0  0  0  0  0
  -38.0334   59.0673   65.4556 C   0  0  0  0  0  0  0  0  0  0  0  0
  -37.2078   59.0204   64.2666 O   0  0  0  0  0  0  0  0  0  0  0  0
  -35.7078   59.5097   63.9729 P   0  0  0  0  0  0  0  0  0  0  0  0
  -35.2218   58.8211   62.6987 O   0  0  0  0  0  0  0  0  0  0  0  0
  -34.8428   59.0864   65.0958 O   0  0  0  0  0  0  0  0  0  0  0  0
  -34.9013   58.1241   65.2039 H   0  0  0  0  0  0  0  0  0  0  0  0
  -35.6377   61.1385   63.7549 O   0  0  0  0  0  0  0  0  0  0  0  0
  -35.1727   62.1103   64.7308 C   0  0  0  0  0  0  0  0  0  0  0  0
  -33.7326   62.4708   64.4621 C   0  0  0  0  0  0  0  0  0  0  0  0
  -33.3377   63.9141   64.7143 N   0  0  0  0  0  0  0  0  0  0  0  0
  -33.9412   64.4071   65.9902 C   0  0  0  0  0  0  0  0  0  0  0  0
  -33.8407   64.7511   63.5843 C   0  0  0  0  0  0  0  0  0  0  0  0
  -31.8438   64.0436   64.8028 C   0  0  0  0  0  0  0  0  0  0  0  0
 34 33  1  0  0  0
 34 35  1  0  0  0
 34 36  1  0  0  0
 34 37  1  0  0  0
 22 23  1  0  0  0
 22 25  1  0  0  0
 22 21  1  0  0  0
 23 24  1  0  0  0
 27 26  1  0  0  0
 27 28  2  0  0  0
 27 31  1  0  0  0
 27 29  1  0  0  0
 25 26  1  0  0  0
 32 33  1  0  0  0
 32 31  1  0  0  0
 29 30  1  0  0  0
 20 21  1  0  0  0
 20  2  1  0  0  0
  1  2  2  0  0  0
  2  3  1  0  0  0
  3  4  1  0  0  0
  4  5  1  0  0  0
  5  6  1  0  0  0
  6  7  1  0  0  0
  7  8  1  0  0  0
  8  9  1  0  0  0
  9 10  1  0  0  0
 10 11  2  0  0  0
 11 12  1  0  0  0
 12 13  1  0  0  0
 13 14  1  0  0  0
 14 15  1  0  0  0
 15 16  1  0  0  0
 16 17  1  0  0  0
 17 18  1  0  0  0
 18 19  1  0  0  0
M  CHG 1  28  -1
M  END
> <minimizedAffinity>
-7.89107

> <CNNscore>
0.5945257545

> <CNNaffinity>
6.2731237411

> <CNN_VS>
3.7295336723

> <CNNaffinity_variance>
0.1053978652

$$$$
