/media/chris/experiments/cd1a-new-docking/inputs/ligands/4x6e_ligand.pdb


 37 36  0  0  0  0  0  0  0  0999 V2000
  -40.4167   60.8242   66.2871 O   0  0  0  0  0  0  0  0  0  0  0  0
  -40.6099   59.6442   66.1300 C   0  0  0  0  0  0  0  0  0  0  0  0
  -41.8393   58.9028   66.5576 C   0  0  0  0  0  0  0  0  0  0  0  0
  -43.1301   59.5551   66.0771 C   0  0  0  0  0  0  0  0  0  0  0  0
  -43.9897   58.6651   65.1958 C   0  0  0  0  0  0  0  0  0  0  0  0
  -45.2921   58.2417   65.8519 C   0  0  0  0  0  0  0  0  0  0  0  0
  -45.9645   59.3698   66.6154 C   0  0  0  0  0  0  0  0  0  0  0  0
  -47.2817   59.7761   65.9931 C   0  0  0  0  0  0  0  0  0  0  0  0
  -47.9270   58.7160   65.1239 C   0  0  0  0  0  0  0  0  0  0  0  0
  -49.2859   58.3226   65.5610 C   0  0  0  0  0  0  0  0  0  0  0  0
  -50.4203   58.7426   65.0399 C   0  0  0  0  0  0  0  0  0  0  0  0
  -50.5932   59.6667   63.8785 C   0  0  0  0  0  0  0  0  0  0  0  0
  -51.1751   58.9087   62.6843 C   0  0  0  0  0  0  0  0  0  0  0  0
  -50.1748   58.0901   61.8813 C   0  0  0  0  0  0  0  0  0  0  0  0
  -50.7042   57.5388   60.5630 C   0  0  0  0  0  0  0  0  0  0  0  0
  -49.8917   57.9774   59.3491 C   0  0  0  0  0  0  0  0  0  0  0  0
  -48.7010   57.0796   59.0523 C   0  0  0  0  0  0  0  0  0  0  0  0
  -48.2965   56.9968   57.5881 C   0  0  0  0  0  0  0  0  0  0  0  0
  -47.5206   55.7557   57.2703 C   0  0  0  0  0  0  0  0  0  0  0  0
  -39.7493   58.8150   65.5319 O   0  0  0  0  0  0  0  0  0  0  0  0
  -38.3426   58.9866   65.8122 C   0  0  0  0  0  0  0  0  0  0  0  0
  -37.4797   58.2171   64.8347 C   0  0  0  0  0  0  0  0  0  0  0  0
  -38.2854   57.4803   63.9051 O   0  0  0  0  0  0  0  0  0  0  0  0
  -38.8121   58.0976   63.3736 H   0  0  0  0  0  0  0  0  0  0  0  0
  -36.5256   59.1095   64.0759 C   0  0  0  0  0  0  0  0  0  0  0  0
  -37.0137   60.4704   63.9909 O   0  0  0  0  0  0  0  0  0  0  0  0
  -37.9935   61.2037   62.9527 P   0  0  0  0  0  0  0  0  0  0  0  0
  -37.3967   62.5692   62.6159 O   0  0  0  0  0  0  0  0  0  0  0  0
  -39.3051   61.4112   63.6045 O   0  0  0  0  0  0  0  0  0  0  0  0
  -39.1837   61.9226   64.4197 H   0  0  0  0  0  0  0  0  0  0  0  0
  -38.1546   60.3384   61.5631 O   0  0  0  0  0  0  0  0  0  0  0  0
  -39.4096   59.9417   60.9463 C   0  0  0  0  0  0  0  0  0  0  0  0
  -39.5565   58.4406   60.9822 C   0  0  0  0  0  0  0  0  0  0  0  0
  -40.9189   57.9030   61.3790 N   0  0  0  0  0  0  0  0  0  0  0  0
  -41.8591   57.9496   60.2175 C   0  0  0  0  0  0  0  0  0  0  0  0
  -41.4649   58.7519   62.4799 C   0  0  0  0  0  0  0  0  0  0  0  0
  -40.8063   56.4828   61.8550 C   0  0  0  0  0  0  0  0  0  0  0  0
 34 33  1  0  0  0
 34 35  1  0  0  0
 34 36  1  0  0  0
 34 37  1  0  0  0
 22 23  1  0  0  0
 22 25  1  0  0  0
 22 21  1  0  0  0
 23 24  1  0  0  0
 27 26  1  0  0  0
 27 28  2  0  0  0
 27 31  1  0  0  0
 27 29  1  0  0  0
 25 26  1  0  0  0
 32 33  1  0  0  0
 32 31  1  0  0  0
 29 30  1  0  0  0
 20 21  1  0  0  0
 20  2  1  0  0  0
  1  2  2  0  0  0
  2  3  1  0  0  0
  3  4  1  0  0  0
  4  5  1  0  0  0
  5  6  1  0  0  0
  6  7  1  0  0  0
  7  8  1  0  0  0
  8  9  1  0  0  0
  9 10  1  0  0  0
 10 11  2  0  0  0
 11 12  1  0  0  0
 12 13  1  0  0  0
 13 14  1  0  0  0
 14 15  1  0  0  0
 15 16  1  0  0  0
 16 17  1  0  0  0
 17 18  1  0  0  0
 18 19  1  0  0  0
M  CHG 1  28  -1
M  END
> <minimizedAffinity>
-7.96549

> <CNNscore>
0.8361770511

> <CNNaffinity>
7.2753343582

> <CNN_VS>
6.0834674835

> <CNNaffinity_variance>
0.1696288437

$$$$
/media/chris/experiments/cd1a-new-docking/inputs/ligands/4x6e_ligand.pdb


 37 36  0  0  0  0  0  0  0  0999 V2000
  -41.1032   61.0064   64.7230 O   0  0  0  0  0  0  0  0  0  0  0  0
  -41.2296   60.1503   65.5629 C   0  0  0  0  0  0  0  0  0  0  0  0
  -41.9846   60.3016   66.8478 C   0  0  0  0  0  0  0  0  0  0  0  0
  -42.8252   59.0791   67.1966 C   0  0  0  0  0  0  0  0  0  0  0  0
  -44.2882   59.1938   66.8042 C   0  0  0  0  0  0  0  0  0  0  0  0
  -44.6193   58.4980   65.4956 C   0  0  0  0  0  0  0  0  0  0  0  0
  -45.3985   57.2088   65.6913 C   0  0  0  0  0  0  0  0  0  0  0  0
  -46.5300   57.3691   66.6819 C   0  0  0  0  0  0  0  0  0  0  0  0
  -47.9172   57.3237   66.0740 C   0  0  0  0  0  0  0  0  0  0  0  0
  -48.6145   58.6299   66.0639 C   0  0  0  0  0  0  0  0  0  0  0  0
  -49.1321   59.2248   65.0090 C   0  0  0  0  0  0  0  0  0  0  0  0
  -49.1701   58.7066   63.6080 C   0  0  0  0  0  0  0  0  0  0  0  0
  -50.6184   58.4967   63.1633 C   0  0  0  0  0  0  0  0  0  0  0  0
  -50.8014   58.0905   61.7083 C   0  0  0  0  0  0  0  0  0  0  0  0
  -49.5081   57.8506   60.9389 C   0  0  0  0  0  0  0  0  0  0  0  0
  -49.4695   56.5084   60.2158 C   0  0  0  0  0  0  0  0  0  0  0  0
  -48.3250   56.3804   59.2229 C   0  0  0  0  0  0  0  0  0  0  0  0
  -48.4890   57.1720   57.9342 C   0  0  0  0  0  0  0  0  0  0  0  0
  -47.3530   56.9675   56.9797 C   0  0  0  0  0  0  0  0  0  0  0  0
  -40.7183   58.9196   65.4643 O   0  0  0  0  0  0  0  0  0  0  0  0
  -40.2637   58.4807   64.1652 C   0  0  0  0  0  0  0  0  0  0  0  0
  -38.8504   57.9405   64.2204 C   0  0  0  0  0  0  0  0  0  0  0  0
  -38.2019   58.0624   62.9473 O   0  0  0  0  0  0  0  0  0  0  0  0
  -38.1243   59.0004   62.7125 H   0  0  0  0  0  0  0  0  0  0  0  0
  -38.0115   58.6174   65.2788 C   0  0  0  0  0  0  0  0  0  0  0  0
  -37.1826   59.6653   64.7200 O   0  0  0  0  0  0  0  0  0  0  0  0
  -37.3969   61.2490   64.5722 P   0  0  0  0  0  0  0  0  0  0  0  0
  -37.7556   61.8124   65.9463 O   0  0  0  0  0  0  0  0  0  0  0  0
  -38.5315   61.4899   63.6540 O   0  0  0  0  0  0  0  0  0  0  0  0
  -39.3223   61.0418   63.9926 H   0  0  0  0  0  0  0  0  0  0  0  0
  -36.0326   61.9934   64.0337 O   0  0  0  0  0  0  0  0  0  0  0  0
  -35.4098   63.1652   64.6269 C   0  0  0  0  0  0  0  0  0  0  0  0
  -33.9184   63.1333   64.4015 C   0  0  0  0  0  0  0  0  0  0  0  0
  -33.1312   64.3270   64.9094 N   0  0  0  0  0  0  0  0  0  0  0  0
  -31.6925   63.9653   65.0947 C   0  0  0  0  0  0  0  0  0  0  0  0
  -33.6991   64.7486   66.2248 C   0  0  0  0  0  0  0  0  0  0  0  0
  -33.2228   65.4697   63.9387 C   0  0  0  0  0  0  0  0  0  0  0  0
 34 33  1  0  0  0
 34 35  1  0  0  0
 34 36  1  0  0  0
 34 37  1  0  0  0
 22 23  1  0  0  0
 22 25  1  0  0  0
 22 21  1  0  0  0
 23 24  1  0  0  0
 27 26  1  0  0  0
 27 28  2  0  0  0
 27 31  1  0  0  0
 27 29  1  0  0  0
 25 26  1  0  0  0
 32 33  1  0  0  0
 32 31  1  0  0  0
 29 30  1  0  0  0
 20 21  1  0  0  0
 20  2  1  0  0  0
  1  2  2  0  0  0
  2  3  1  0  0  0
  3  4  1  0  0  0
  4  5  1  0  0  0
  5  6  1  0  0  0
  6  7  1  0  0  0
  7  8  1  0  0  0
  8  9  1  0  0  0
  9 10  1  0  0  0
 10 11  2  0  0  0
 11 12  1  0  0  0
 12 13  1  0  0  0
 13 14  1  0  0  0
 14 15  1  0  0  0
 15 16  1  0  0  0
 16 17  1  0  0  0
 17 18  1  0  0  0
 18 19  1  0  0  0
M  CHG 1  28  -1
M  END
> <minimizedAffinity>
-7.81474

> <CNNscore>
0.7730433941

> <CNNaffinity>
6.4321289062

> <CNN_VS>
4.9723148346

> <CNNaffinity_variance>
0.1126153469

$$$$
/media/chris/experiments/cd1a-new-docking/inputs/ligands/4x6e_ligand.pdb


 37 36  0  0  0  0  0  0  0  0999 V2000
  -42.1973   55.0924   64.6387 O   0  0  0  0  0  0  0  0  0  0  0  0
  -42.0580   56.2879   64.7150 C   0  0  0  0  0  0  0  0  0  0  0  0
  -42.6854   57.1691   65.7511 C   0  0  0  0  0  0  0  0  0  0  0  0
  -44.0883   57.6310   65.3754 C   0  0  0  0  0  0  0  0  0  0  0  0
  -45.1002   57.5385   66.5046 C   0  0  0  0  0  0  0  0  0  0  0  0
  -45.5231   58.8913   67.0495 C   0  0  0  0  0  0  0  0  0  0  0  0
  -47.0146   59.1448   66.9125 C   0  0  0  0  0  0  0  0  0  0  0  0
  -47.3183   60.2545   65.9308 C   0  0  0  0  0  0  0  0  0  0  0  0
  -48.1141   59.8261   64.7146 C   0  0  0  0  0  0  0  0  0  0  0  0
  -49.1139   58.7692   64.9895 C   0  0  0  0  0  0  0  0  0  0  0  0
  -50.3826   58.7907   64.6363 C   0  0  0  0  0  0  0  0  0  0  0  0
  -51.0839   59.8523   63.8528 C   0  0  0  0  0  0  0  0  0  0  0  0
  -51.1525   59.4585   62.3764 C   0  0  0  0  0  0  0  0  0  0  0  0
  -50.7816   58.0152   62.0686 C   0  0  0  0  0  0  0  0  0  0  0  0
  -50.8849   57.6227   60.5998 C   0  0  0  0  0  0  0  0  0  0  0  0
  -49.5567   57.6988   59.8541 C   0  0  0  0  0  0  0  0  0  0  0  0
  -48.7684   56.3987   59.8730 C   0  0  0  0  0  0  0  0  0  0  0  0
  -47.9698   56.1027   58.6124 C   0  0  0  0  0  0  0  0  0  0  0  0
  -47.9929   57.2350   57.6323 C   0  0  0  0  0  0  0  0  0  0  0  0
  -41.3033   57.0110   63.8823 O   0  0  0  0  0  0  0  0  0  0  0  0
  -41.3569   56.6916   62.4745 C   0  0  0  0  0  0  0  0  0  0  0  0
  -41.9850   57.8103   61.6707 C   0  0  0  0  0  0  0  0  0  0  0  0
  -42.4134   58.8803   62.5238 O   0  0  0  0  0  0  0  0  0  0  0  0
  -41.6433   59.2665   62.9696 H   0  0  0  0  0  0  0  0  0  0  0  0
  -41.0572   58.3540   60.6096 C   0  0  0  0  0  0  0  0  0  0  0  0
  -39.6815   57.9705   60.8496 O   0  0  0  0  0  0  0  0  0  0  0  0
  -38.2985   58.7756   60.7269 P   0  0  0  0  0  0  0  0  0  0  0  0
  -38.6020   60.2677   60.8514 O   0  0  0  0  0  0  0  0  0  0  0  0
  -37.7204   58.5230   59.3888 O   0  0  0  0  0  0  0  0  0  0  0  0
  -38.3590   58.7827   58.7065 H   0  0  0  0  0  0  0  0  0  0  0  0
  -37.2454   58.3478   61.9158 O   0  0  0  0  0  0  0  0  0  0  0  0
  -37.5764   58.1490   63.3172 C   0  0  0  0  0  0  0  0  0  0  0  0
  -37.0084   59.2706   64.1512 C   0  0  0  0  0  0  0  0  0  0  0  0
  -37.9778   60.3599   64.5713 N   0  0  0  0  0  0  0  0  0  0  0  0
  -37.7202   61.6156   63.8019 C   0  0  0  0  0  0  0  0  0  0  0  0
  -37.7860   60.6343   66.0268 C   0  0  0  0  0  0  0  0  0  0  0  0
  -39.3952   59.9252   64.3296 C   0  0  0  0  0  0  0  0  0  0  0  0
 34 33  1  0  0  0
 34 35  1  0  0  0
 34 36  1  0  0  0
 34 37  1  0  0  0
 22 23  1  0  0  0
 22 25  1  0  0  0
 22 21  1  0  0  0
 23 24  1  0  0  0
 27 26  1  0  0  0
 27 28  2  0  0  0
 27 31  1  0  0  0
 27 29  1  0  0  0
 25 26  1  0  0  0
 32 33  1  0  0  0
 32 31  1  0  0  0
 29 30  1  0  0  0
 20 21  1  0  0  0
 20  2  1  0  0  0
  1  2  2  0  0  0
  2  3  1  0  0  0
  3  4  1  0  0  0
  4  5  1  0  0  0
  5  6  1  0  0  0
  6  7  1  0  0  0
  7  8  1  0  0  0
  8  9  1  0  0  0
  9 10  1  0  0  0
 10 11  2  0  0  0
 11 12  1  0  0  0
 12 13  1  0  0  0
 13 14  1  0  0  0
 14 15  1  0  0  0
 15 16  1  0  0  0
 16 17  1  0  0  0
 17 18  1  0  0  0
 18 19  1  0  0  0
M  CHG 1  28  -1
M  END
> <minimizedAffinity>
-7.96254

> <CNNscore>
0.7559528947

> <CNNaffinity>
6.9297742844

> <CNN_VS>
5.2385830879

> <CNNaffinity_variance>
0.2142583579

$$$$
/media/chris/experiments/cd1a-new-docking/inputs/ligands/4x6e_ligand.pdb


 37 36  0  0  0  0  0  0  0  0999 V2000
  -40.6217   58.8907   65.3867 O   0  0  0  0  0  0  0  0  0  0  0  0
  -40.7775   59.9217   65.9927 C   0  0  0  0  0  0  0  0  0  0  0  0
  -42.0669   60.3844   66.5986 C   0  0  0  0  0  0  0  0  0  0  0  0
  -43.0381   59.2451   66.8837 C   0  0  0  0  0  0  0  0  0  0  0  0
  -44.3963   59.4011   66.2217 C   0  0  0  0  0  0  0  0  0  0  0  0
  -45.5603   59.1346   67.1599 C   0  0  0  0  0  0  0  0  0  0  0  0
  -46.9078   59.1834   66.4604 C   0  0  0  0  0  0  0  0  0  0  0  0
  -47.2639   57.8640   65.8125 C   0  0  0  0  0  0  0  0  0  0  0  0
  -48.5772   57.8618   65.0567 C   0  0  0  0  0  0  0  0  0  0  0  0
  -49.6160   58.7344   65.6499 C   0  0  0  0  0  0  0  0  0  0  0  0
  -50.3139   59.6524   65.0137 C   0  0  0  0  0  0  0  0  0  0  0  0
  -50.2477   59.9906   63.5597 C   0  0  0  0  0  0  0  0  0  0  0  0
  -51.1771   59.0738   62.7629 C   0  0  0  0  0  0  0  0  0  0  0  0
  -50.4817   58.0755   61.8489 C   0  0  0  0  0  0  0  0  0  0  0  0
  -49.9576   58.6561   60.5410 C   0  0  0  0  0  0  0  0  0  0  0  0
  -49.7770   57.6148   59.4414 C   0  0  0  0  0  0  0  0  0  0  0  0
  -48.9939   56.3882   59.8822 C   0  0  0  0  0  0  0  0  0  0  0  0
  -47.7597   56.0702   59.0515 C   0  0  0  0  0  0  0  0  0  0  0  0
  -47.8124   56.6721   57.6810 C   0  0  0  0  0  0  0  0  0  0  0  0
  -39.8067   60.8097   66.2268 O   0  0  0  0  0  0  0  0  0  0  0  0
  -38.4392   60.3531   66.1356 C   0  0  0  0  0  0  0  0  0  0  0  0
  -37.5817   61.3116   65.3368 C   0  0  0  0  0  0  0  0  0  0  0  0
  -37.2251   62.4591   66.1194 O   0  0  0  0  0  0  0  0  0  0  0  0
  -36.6862   62.1796   66.8760 H   0  0  0  0  0  0  0  0  0  0  0  0
  -36.3287   60.6600   64.8004 C   0  0  0  0  0  0  0  0  0  0  0  0
  -36.6265   59.6900   63.7671 O   0  0  0  0  0  0  0  0  0  0  0  0
  -36.1356   58.1807   63.5285 P   0  0  0  0  0  0  0  0  0  0  0  0
  -35.4229   57.7049   64.7933 O   0  0  0  0  0  0  0  0  0  0  0  0
  -35.1676   58.1685   62.4100 O   0  0  0  0  0  0  0  0  0  0  0  0
  -34.4316   58.7668   62.6128 H   0  0  0  0  0  0  0  0  0  0  0  0
  -37.4025   57.1767   63.2244 O   0  0  0  0  0  0  0  0  0  0  0  0
  -38.2469   57.2035   62.0415 C   0  0  0  0  0  0  0  0  0  0  0  0
  -39.5684   57.8584   62.3591 C   0  0  0  0  0  0  0  0  0  0  0  0
  -40.0335   58.9425   61.4045 N   0  0  0  0  0  0  0  0  0  0  0  0
  -41.3917   58.6211   60.8686 C   0  0  0  0  0  0  0  0  0  0  0  0
  -39.0692   59.0226   60.2669 C   0  0  0  0  0  0  0  0  0  0  0  0
  -40.0898   60.2708   62.1035 C   0  0  0  0  0  0  0  0  0  0  0  0
 34 33  1  0  0  0
 34 35  1  0  0  0
 34 36  1  0  0  0
 34 37  1  0  0  0
 22 23  1  0  0  0
 22 25  1  0  0  0
 22 21  1  0  0  0
 23 24  1  0  0  0
 27 26  1  0  0  0
 27 28  2  0  0  0
 27 31  1  0  0  0
 27 29  1  0  0  0
 25 26  1  0  0  0
 32 33  1  0  0  0
 32 31  1  0  0  0
 29 30  1  0  0  0
 20 21  1  0  0  0
 20  2  1  0  0  0
  1  2  2  0  0  0
  2  3  1  0  0  0
  3  4  1  0  0  0
  4  5  1  0  0  0
  5  6  1  0  0  0
  6  7  1  0  0  0
  7  8  1  0  0  0
  8  9  1  0  0  0
  9 10  1  0  0  0
 10 11  2  0  0  0
 11 12  1  0  0  0
 12 13  1  0  0  0
 13 14  1  0  0  0
 14 15  1  0  0  0
 15 16  1  0  0  0
 16 17  1  0  0  0
 17 18  1  0  0  0
 18 19  1  0  0  0
M  CHG 1  28  -1
M  END
> <minimizedAffinity>
-8.00047

> <CNNscore>
0.7251210809

> <CNNaffinity>
7.0141525269

> <CNN_VS>
5.0861096382

> <CNNaffinity_variance>
0.1470666677

$$$$
/media/chris/experiments/cd1a-new-docking/inputs/ligands/4x6e_ligand.pdb


 37 36  0  0  0  0  0  0  0  0999 V2000
  -42.7673   57.8650   64.2680 O   0  0  0  0  0  0  0  0  0  0  0  0
  -42.7380   59.0191   64.6169 C   0  0  0  0  0  0  0  0  0  0  0  0
  -43.8998   59.7877   65.1676 C   0  0  0  0  0  0  0  0  0  0  0  0
  -44.7868   60.3909   64.0850 C   0  0  0  0  0  0  0  0  0  0  0  0
  -46.2751   60.3038   64.3760 C   0  0  0  0  0  0  0  0  0  0  0  0
  -46.6957   58.9767   64.9827 C   0  0  0  0  0  0  0  0  0  0  0  0
  -47.9342   59.0904   65.8548 C   0  0  0  0  0  0  0  0  0  0  0  0
  -48.8837   57.9304   65.6540 C   0  0  0  0  0  0  0  0  0  0  0  0
  -50.3519   58.3049   65.6512 C   0  0  0  0  0  0  0  0  0  0  0  0
  -50.6072   59.7432   65.4092 C   0  0  0  0  0  0  0  0  0  0  0  0
  -50.8946   60.2955   64.2486 C   0  0  0  0  0  0  0  0  0  0  0  0
  -51.0670   59.6018   62.9364 C   0  0  0  0  0  0  0  0  0  0  0  0
  -49.7017   59.3048   62.3143 C   0  0  0  0  0  0  0  0  0  0  0  0
  -49.5553   57.9240   61.6918 C   0  0  0  0  0  0  0  0  0  0  0  0
  -50.5859   57.5874   60.6209 C   0  0  0  0  0  0  0  0  0  0  0  0
  -50.0475   57.7054   59.1989 C   0  0  0  0  0  0  0  0  0  0  0  0
  -48.7154   57.0032   58.9882 C   0  0  0  0  0  0  0  0  0  0  0  0
  -48.1229   57.1350   57.5932 C   0  0  0  0  0  0  0  0  0  0  0  0
  -47.0338   56.1412   57.3297 C   0  0  0  0  0  0  0  0  0  0  0  0
  -41.6468   59.7894   64.5746 O   0  0  0  0  0  0  0  0  0  0  0  0
  -40.5570   59.4638   65.4651 C   0  0  0  0  0  0  0  0  0  0  0  0
  -39.2116   59.6870   64.8076 C   0  0  0  0  0  0  0  0  0  0  0  0
  -38.9162   61.0861   64.7000 O   0  0  0  0  0  0  0  0  0  0  0  0
  -38.8512   61.4719   65.5876 H   0  0  0  0  0  0  0  0  0  0  0  0
  -38.0868   58.9903   65.5367 C   0  0  0  0  0  0  0  0  0  0  0  0
  -37.0757   58.4995   64.6234 O   0  0  0  0  0  0  0  0  0  0  0  0
  -36.2878   59.1938   63.4097 P   0  0  0  0  0  0  0  0  0  0  0  0
  -35.0731   58.3306   63.0730 O   0  0  0  0  0  0  0  0  0  0  0  0
  -35.8125   60.5230   63.8519 O   0  0  0  0  0  0  0  0  0  0  0  0
  -35.2572   60.4217   64.6408 H   0  0  0  0  0  0  0  0  0  0  0  0
  -37.2354   59.3205   62.0712 O   0  0  0  0  0  0  0  0  0  0  0  0
  -37.7858   58.2126   61.3080 C   0  0  0  0  0  0  0  0  0  0  0  0
  -38.9931   58.6672   60.5257 C   0  0  0  0  0  0  0  0  0  0  0  0
  -40.3250   58.0570   60.9210 N   0  0  0  0  0  0  0  0  0  0  0  0
  -41.3413   59.1273   61.1596 C   0  0  0  0  0  0  0  0  0  0  0  0
  -40.1375   57.2762   62.1803 C   0  0  0  0  0  0  0  0  0  0  0  0
  -40.8275   57.1437   59.8395 C   0  0  0  0  0  0  0  0  0  0  0  0
 34 33  1  0  0  0
 34 35  1  0  0  0
 34 36  1  0  0  0
 34 37  1  0  0  0
 22 23  1  0  0  0
 22 25  1  0  0  0
 22 21  1  0  0  0
 23 24  1  0  0  0
 27 26  1  0  0  0
 27 28  2  0  0  0
 27 31  1  0  0  0
 27 29  1  0  0  0
 25 26  1  0  0  0
 32 33  1  0  0  0
 32 31  1  0  0  0
 29 30  1  0  0  0
 20 21  1  0  0  0
 20  2  1  0  0  0
  1  2  2  0  0  0
  2  3  1  0  0  0
  3  4  1  0  0  0
  4  5  1  0  0  0
  5  6  1  0  0  0
  6  7  1  0  0  0
  7  8  1  0  0  0
  8  9  1  0  0  0
  9 10  1  0  0  0
 10 11  2  0  0  0
 11 12  1  0  0  0
 12 13  1  0  0  0
 13 14  1  0  0  0
 14 15  1  0  0  0
 15 16  1  0  0  0
 16 17  1  0  0  0
 17 18  1  0  0  0
 18 19  1  0  0  0
M  CHG 1  28  -1
M  END
> <minimizedAffinity>
-7.82741

> <CNNscore>
0.7171463966

> <CNNaffinity>
6.9950284958

> <CNN_VS>
5.0164594650

> <CNNaffinity_variance>
0.1192040816

$$$$
/media/chris/experiments/cd1a-new-docking/inputs/ligands/4x6e_ligand.pdb


 37 36  0  0  0  0  0  0  0  0999 V2000
  -41.9061   55.9353   64.7237 O   0  0  0  0  0  0  0  0  0  0  0  0
  -42.4928   56.9883   64.7586 C   0  0  0  0  0  0  0  0  0  0  0  0
  -43.9624   57.1541   64.9970 C   0  0  0  0  0  0  0  0  0  0  0  0
  -44.3103   57.3764   66.4640 C   0  0  0  0  0  0  0  0  0  0  0  0
  -45.7903   57.5923   66.7296 C   0  0  0  0  0  0  0  0  0  0  0  0
  -46.1955   59.0558   66.7389 C   0  0  0  0  0  0  0  0  0  0  0  0
  -47.6819   59.2601   66.5013 C   0  0  0  0  0  0  0  0  0  0  0  0
  -48.3262   58.0601   65.8437 C   0  0  0  0  0  0  0  0  0  0  0  0
  -49.8410   58.0853   65.8218 C   0  0  0  0  0  0  0  0  0  0  0  0
  -50.4172   59.3955   65.4424 C   0  0  0  0  0  0  0  0  0  0  0  0
  -50.8434   59.7377   64.2441 C   0  0  0  0  0  0  0  0  0  0  0  0
  -50.8808   58.8812   63.0203 C   0  0  0  0  0  0  0  0  0  0  0  0
  -50.4987   59.7047   61.7893 C   0  0  0  0  0  0  0  0  0  0  0  0
  -49.7815   58.9372   60.6884 C   0  0  0  0  0  0  0  0  0  0  0  0
  -49.6525   57.4377   60.9273 C   0  0  0  0  0  0  0  0  0  0  0  0
  -48.8839   56.7099   59.8294 C   0  0  0  0  0  0  0  0  0  0  0  0
  -49.0244   57.3488   58.4568 C   0  0  0  0  0  0  0  0  0  0  0  0
  -47.8471   57.1381   57.5165 C   0  0  0  0  0  0  0  0  0  0  0  0
  -47.4564   55.6977   57.3907 C   0  0  0  0  0  0  0  0  0  0  0  0
  -41.9086   58.1796   64.5998 O   0  0  0  0  0  0  0  0  0  0  0  0
  -41.7481   58.6775   63.2533 C   0  0  0  0  0  0  0  0  0  0  0  0
  -40.3935   59.3235   63.0536 C   0  0  0  0  0  0  0  0  0  0  0  0
  -40.2331   59.7779   61.7029 O   0  0  0  0  0  0  0  0  0  0  0  0
  -40.8913   60.4645   61.5125 H   0  0  0  0  0  0  0  0  0  0  0  0
  -40.1538   60.4741   64.0028 C   0  0  0  0  0  0  0  0  0  0  0  0
  -39.2290   61.4429   63.4517 O   0  0  0  0  0  0  0  0  0  0  0  0
  -37.6409   61.6238   63.5960 P   0  0  0  0  0  0  0  0  0  0  0  0
  -37.1890   62.6887   62.5980 O   0  0  0  0  0  0  0  0  0  0  0  0
  -36.9847   60.3444   63.2483 O   0  0  0  0  0  0  0  0  0  0  0  0
  -37.2449   60.0808   62.3518 H   0  0  0  0  0  0  0  0  0  0  0  0
  -37.2255   62.1079   65.1121 O   0  0  0  0  0  0  0  0  0  0  0  0
  -36.0882   61.6271   65.8792 C   0  0  0  0  0  0  0  0  0  0  0  0
  -34.8003   62.1170   65.2648 C   0  0  0  0  0  0  0  0  0  0  0  0
  -34.4081   63.5512   65.5681 N   0  0  0  0  0  0  0  0  0  0  0  0
  -34.6992   64.4329   64.3964 C   0  0  0  0  0  0  0  0  0  0  0  0
  -32.9432   63.5947   65.8562 C   0  0  0  0  0  0  0  0  0  0  0  0
  -35.1650   64.0632   66.7602 C   0  0  0  0  0  0  0  0  0  0  0  0
 34 33  1  0  0  0
 34 35  1  0  0  0
 34 36  1  0  0  0
 34 37  1  0  0  0
 22 23  1  0  0  0
 22 25  1  0  0  0
 22 21  1  0  0  0
 23 24  1  0  0  0
 27 26  1  0  0  0
 27 28  2  0  0  0
 27 31  1  0  0  0
 27 29  1  0  0  0
 25 26  1  0  0  0
 32 33  1  0  0  0
 32 31  1  0  0  0
 29 30  1  0  0  0
 20 21  1  0  0  0
 20  2  1  0  0  0
  1  2  2  0  0  0
  2  3  1  0  0  0
  3  4  1  0  0  0
  4  5  1  0  0  0
  5  6  1  0  0  0
  6  7  1  0  0  0
  7  8  1  0  0  0
  8  9  1  0  0  0
  9 10  1  0  0  0
 10 11  2  0  0  0
 11 12  1  0  0  0
 12 13  1  0  0  0
 13 14  1  0  0  0
 14 15  1  0  0  0
 15 16  1  0  0  0
 16 17  1  0  0  0
 17 18  1  0  0  0
 18 19  1  0  0  0
M  CHG 1  28  -1
M  END
> <minimizedAffinity>
-8.01644

> <CNNscore>
0.6804258227

> <CNNaffinity>
6.5518708229

> <CNN_VS>
4.4580621719

> <CNNaffinity_variance>
0.3858473003

$$$$
/media/chris/experiments/cd1a-new-docking/inputs/ligands/4x6e_ligand.pdb


 37 36  0  0  0  0  0  0  0  0999 V2000
  -42.4380   56.4071   65.4122 O   0  0  0  0  0  0  0  0  0  0  0  0
  -43.0368   57.4539   65.4107 C   0  0  0  0  0  0  0  0  0  0  0  0
  -44.5226   57.6027   65.5294 C   0  0  0  0  0  0  0  0  0  0  0  0
  -45.1101   58.5786   64.5170 C   0  0  0  0  0  0  0  0  0  0  0  0
  -45.7689   59.7997   65.1354 C   0  0  0  0  0  0  0  0  0  0  0  0
  -46.2934   60.7883   64.1090 C   0  0  0  0  0  0  0  0  0  0  0  0
  -47.7822   61.0549   64.2507 C   0  0  0  0  0  0  0  0  0  0  0  0
  -48.3932   60.2891   65.4029 C   0  0  0  0  0  0  0  0  0  0  0  0
  -49.4733   59.3026   65.0079 C   0  0  0  0  0  0  0  0  0  0  0  0
  -50.7399   59.9359   64.5755 C   0  0  0  0  0  0  0  0  0  0  0  0
  -51.1756   60.0321   63.3363 C   0  0  0  0  0  0  0  0  0  0  0  0
  -50.5212   59.4956   62.1048 C   0  0  0  0  0  0  0  0  0  0  0  0
  -50.7005   57.9784   62.0315 C   0  0  0  0  0  0  0  0  0  0  0  0
  -50.8403   57.4053   60.6288 C   0  0  0  0  0  0  0  0  0  0  0  0
  -50.1800   58.2271   59.5284 C   0  0  0  0  0  0  0  0  0  0  0  0
  -49.0891   57.4723   58.7758 C   0  0  0  0  0  0  0  0  0  0  0  0
  -48.4503   56.3532   59.5831 C   0  0  0  0  0  0  0  0  0  0  0  0
  -47.1809   55.7630   58.9875 C   0  0  0  0  0  0  0  0  0  0  0  0
  -47.0925   55.9553   57.5047 C   0  0  0  0  0  0  0  0  0  0  0  0
  -42.4541   58.6526   65.3141 O   0  0  0  0  0  0  0  0  0  0  0  0
  -41.3332   58.9292   66.1823 C   0  0  0  0  0  0  0  0  0  0  0  0
  -40.2024   59.6062   65.4373 C   0  0  0  0  0  0  0  0  0  0  0  0
  -39.7754   60.7943   66.1174 O   0  0  0  0  0  0  0  0  0  0  0  0
  -39.4222   60.5583   66.9895 H   0  0  0  0  0  0  0  0  0  0  0  0
  -39.0170   58.6934   65.2279 C   0  0  0  0  0  0  0  0  0  0  0  0
  -38.5316   58.7454   63.8645 O   0  0  0  0  0  0  0  0  0  0  0  0
  -37.9782   59.9502   62.9601 P   0  0  0  0  0  0  0  0  0  0  0  0
  -38.9935   61.0906   63.0108 O   0  0  0  0  0  0  0  0  0  0  0  0
  -37.8672   59.4807   61.5617 O   0  0  0  0  0  0  0  0  0  0  0  0
  -38.7312   59.1603   61.2587 H   0  0  0  0  0  0  0  0  0  0  0  0
  -36.5316   60.5033   63.5141 O   0  0  0  0  0  0  0  0  0  0  0  0
  -36.0585   60.4274   64.8865 C   0  0  0  0  0  0  0  0  0  0  0  0
  -36.5530   61.6148   65.6748 C   0  0  0  0  0  0  0  0  0  0  0  0
  -35.7110   62.8750   65.6005 N   0  0  0  0  0  0  0  0  0  0  0  0
  -35.6238   63.5267   66.9433 C   0  0  0  0  0  0  0  0  0  0  0  0
  -36.3538   63.8228   64.6418 C   0  0  0  0  0  0  0  0  0  0  0  0
  -34.3224   62.5533   65.1265 C   0  0  0  0  0  0  0  0  0  0  0  0
 34 33  1  0  0  0
 34 35  1  0  0  0
 34 36  1  0  0  0
 34 37  1  0  0  0
 22 23  1  0  0  0
 22 25  1  0  0  0
 22 21  1  0  0  0
 23 24  1  0  0  0
 27 26  1  0  0  0
 27 28  2  0  0  0
 27 31  1  0  0  0
 27 29  1  0  0  0
 25 26  1  0  0  0
 32 33  1  0  0  0
 32 31  1  0  0  0
 29 30  1  0  0  0
 20 21  1  0  0  0
 20  2  1  0  0  0
  1  2  2  0  0  0
  2  3  1  0  0  0
  3  4  1  0  0  0
  4  5  1  0  0  0
  5  6  1  0  0  0
  6  7  1  0  0  0
  7  8  1  0  0  0
  8  9  1  0  0  0
  9 10  1  0  0  0
 10 11  2  0  0  0
 11 12  1  0  0  0
 12 13  1  0  0  0
 13 14  1  0  0  0
 14 15  1  0  0  0
 15 16  1  0  0  0
 16 17  1  0  0  0
 17 18  1  0  0  0
 18 19  1  0  0  0
M  CHG 1  28  -1
M  END
> <minimizedAffinity>
-8.10603

> <CNNscore>
0.6427974701

> <CNNaffinity>
6.5525588989

> <CNN_VS>
4.2119684219

> <CNNaffinity_variance>
0.1768795550

$$$$
/media/chris/experiments/cd1a-new-docking/inputs/ligands/4x6e_ligand.pdb


 37 36  0  0  0  0  0  0  0  0999 V2000
  -40.4908   58.7839   64.8960 O   0  0  0  0  0  0  0  0  0  0  0  0
  -40.5928   59.9373   65.2331 C   0  0  0  0  0  0  0  0  0  0  0  0
  -41.5908   60.4680   66.2160 C   0  0  0  0  0  0  0  0  0  0  0  0
  -42.4348   59.3759   66.8622 C   0  0  0  0  0  0  0  0  0  0  0  0
  -43.7225   59.0601   66.1208 C   0  0  0  0  0  0  0  0  0  0  0  0
  -44.9628   59.1684   66.9903 C   0  0  0  0  0  0  0  0  0  0  0  0
  -46.2533   59.0403   66.1994 C   0  0  0  0  0  0  0  0  0  0  0  0
  -47.0191   57.7851   66.5538 C   0  0  0  0  0  0  0  0  0  0  0  0
  -48.3317   57.6129   65.8166 C   0  0  0  0  0  0  0  0  0  0  0  0
  -49.2234   58.7927   65.8887 C   0  0  0  0  0  0  0  0  0  0  0  0
  -50.1170   59.1458   64.9879 C   0  0  0  0  0  0  0  0  0  0  0  0
  -50.4598   58.4247   63.7249 C   0  0  0  0  0  0  0  0  0  0  0  0
  -50.8364   59.4264   62.6321 C   0  0  0  0  0  0  0  0  0  0  0  0
  -50.4162   59.0408   61.2213 C   0  0  0  0  0  0  0  0  0  0  0  0
  -49.4443   57.8703   61.1357 C   0  0  0  0  0  0  0  0  0  0  0  0
  -49.0894   57.4765   59.7057 C   0  0  0  0  0  0  0  0  0  0  0  0
  -48.4261   56.1130   59.5927 C   0  0  0  0  0  0  0  0  0  0  0  0
  -47.4122   55.9730   58.4671 C   0  0  0  0  0  0  0  0  0  0  0  0
  -47.8265   56.6932   57.2209 C   0  0  0  0  0  0  0  0  0  0  0  0
  -39.8117   60.9236   64.7826 O   0  0  0  0  0  0  0  0  0  0  0  0
  -38.9985   60.6608   63.6179 C   0  0  0  0  0  0  0  0  0  0  0  0
  -37.5694   61.1186   63.8188 C   0  0  0  0  0  0  0  0  0  0  0  0
  -37.3345   62.3752   63.1692 O   0  0  0  0  0  0  0  0  0  0  0  0
  -37.8961   63.0567   63.5706 H   0  0  0  0  0  0  0  0  0  0  0  0
  -37.1955   61.2296   65.2783 C   0  0  0  0  0  0  0  0  0  0  0  0
  -36.6177   62.5207   65.5893 O   0  0  0  0  0  0  0  0  0  0  0  0
  -35.4696   62.9712   66.6163 P   0  0  0  0  0  0  0  0  0  0  0  0
  -34.2744   62.0368   66.4361 O   0  0  0  0  0  0  0  0  0  0  0  0
  -35.9817   62.8196   67.9958 O   0  0  0  0  0  0  0  0  0  0  0  0
  -36.2624   61.9020   68.1375 H   0  0  0  0  0  0  0  0  0  0  0  0
  -34.9817   64.5163   66.3336 O   0  0  0  0  0  0  0  0  0  0  0  0
  -33.6374   65.0349   66.5261 C   0  0  0  0  0  0  0  0  0  0  0  0
  -33.1704   65.7479   65.2813 C   0  0  0  0  0  0  0  0  0  0  0  0
  -32.2903   64.9523   64.3352 N   0  0  0  0  0  0  0  0  0  0  0  0
  -33.1229   64.2489   63.3119 C   0  0  0  0  0  0  0  0  0  0  0  0
  -31.5340   63.9367   65.1272 C   0  0  0  0  0  0  0  0  0  0  0  0
  -31.3200   65.8578   63.6318 C   0  0  0  0  0  0  0  0  0  0  0  0
 34 33  1  0  0  0
 34 35  1  0  0  0
 34 36  1  0  0  0
 34 37  1  0  0  0
 22 23  1  0  0  0
 22 25  1  0  0  0
 22 21  1  0  0  0
 23 24  1  0  0  0
 27 26  1  0  0  0
 27 28  2  0  0  0
 27 31  1  0  0  0
 27 29  1  0  0  0
 25 26  1  0  0  0
 32 33  1  0  0  0
 32 31  1  0  0  0
 29 30  1  0  0  0
 20 21  1  0  0  0
 20  2  1  0  0  0
  1  2  2  0  0  0
  2  3  1  0  0  0
  3  4  1  0  0  0
  4  5  1  0  0  0
  5  6  1  0  0  0
  6  7  1  0  0  0
  7  8  1  0  0  0
  8  9  1  0  0  0
  9 10  1  0  0  0
 10 11  2  0  0  0
 11 12  1  0  0  0
 12 13  1  0  0  0
 13 14  1  0  0  0
 14 15  1  0  0  0
 15 16  1  0  0  0
 16 17  1  0  0  0
 17 18  1  0  0  0
 18 19  1  0  0  0
M  CHG 1  28  -1
M  END
> <minimizedAffinity>
-7.90308

> <CNNscore>
0.6387150884

> <CNNaffinity>
6.2273616791

> <CNN_VS>
3.9775099754

> <CNNaffinity_variance>
0.7068635225

$$$$
/media/chris/experiments/cd1a-new-docking/inputs/ligands/4x6e_ligand.pdb


 37 36  0  0  0  0  0  0  0  0999 V2000
  -40.5085   59.2367   66.1330 O   0  0  0  0  0  0  0  0  0  0  0  0
  -41.4354   59.9823   65.9341 C   0  0  0  0  0  0  0  0  0  0  0  0
  -42.7689   59.9073   66.6124 C   0  0  0  0  0  0  0  0  0  0  0  0
  -43.4677   58.5675   66.4142 C   0  0  0  0  0  0  0  0  0  0  0  0
  -44.9777   58.6640   66.2804 C   0  0  0  0  0  0  0  0  0  0  0  0
  -45.4340   59.8090   65.3934 C   0  0  0  0  0  0  0  0  0  0  0  0
  -46.9462   59.9231   65.3051 C   0  0  0  0  0  0  0  0  0  0  0  0
  -47.6445   59.1097   66.3720 C   0  0  0  0  0  0  0  0  0  0  0  0
  -48.8966   58.3943   65.9070 C   0  0  0  0  0  0  0  0  0  0  0  0
  -49.9178   59.2884   65.3152 C   0  0  0  0  0  0  0  0  0  0  0  0
  -50.4019   59.2111   64.0928 C   0  0  0  0  0  0  0  0  0  0  0  0
  -50.0669   58.1930   63.0517 C   0  0  0  0  0  0  0  0  0  0  0  0
  -50.9053   58.4299   61.7945 C   0  0  0  0  0  0  0  0  0  0  0  0
  -50.2797   57.9491   60.4934 C   0  0  0  0  0  0  0  0  0  0  0  0
  -49.5815   56.5970   60.5753 C   0  0  0  0  0  0  0  0  0  0  0  0
  -48.5515   56.3756   59.4726 C   0  0  0  0  0  0  0  0  0  0  0  0
  -48.5712   57.4455   58.3924 C   0  0  0  0  0  0  0  0  0  0  0  0
  -47.8931   57.0639   57.0850 C   0  0  0  0  0  0  0  0  0  0  0  0
  -47.0422   55.8376   57.2098 C   0  0  0  0  0  0  0  0  0  0  0  0
  -41.4049   61.0068   65.0767 O   0  0  0  0  0  0  0  0  0  0  0  0
  -42.2584   60.9377   63.9133 C   0  0  0  0  0  0  0  0  0  0  0  0
  -41.7710   59.9015   62.9228 C   0  0  0  0  0  0  0  0  0  0  0  0
  -42.7157   59.7204   61.8593 O   0  0  0  0  0  0  0  0  0  0  0  0
  -42.8059   60.5487   61.3625 H   0  0  0  0  0  0  0  0  0  0  0  0
  -40.4196   60.2451   62.3416 C   0  0  0  0  0  0  0  0  0  0  0  0
  -39.3483   59.5444   63.0190 O   0  0  0  0  0  0  0  0  0  0  0  0
  -38.8411   58.0231   62.9528 P   0  0  0  0  0  0  0  0  0  0  0  0
  -39.1709   57.4698   61.5674 O   0  0  0  0  0  0  0  0  0  0  0  0
  -39.5789   57.2333   63.9628 O   0  0  0  0  0  0  0  0  0  0  0  0
  -40.5321   57.3105   63.8005 H   0  0  0  0  0  0  0  0  0  0  0  0
  -37.2172   57.9191   63.1923 O   0  0  0  0  0  0  0  0  0  0  0  0
  -36.3069   59.0394   63.3632 C   0  0  0  0  0  0  0  0  0  0  0  0
  -36.1924   59.3999   64.8237 C   0  0  0  0  0  0  0  0  0  0  0  0
  -36.3543   60.8676   65.1736 N   0  0  0  0  0  0  0  0  0  0  0  0
  -35.0820   61.4156   65.7359 C   0  0  0  0  0  0  0  0  0  0  0  0
  -37.4335   60.9979   66.1978 C   0  0  0  0  0  0  0  0  0  0  0  0
  -36.7272   61.6615   63.9542 C   0  0  0  0  0  0  0  0  0  0  0  0
 34 33  1  0  0  0
 34 35  1  0  0  0
 34 36  1  0  0  0
 34 37  1  0  0  0
 22 23  1  0  0  0
 22 25  1  0  0  0
 22 21  1  0  0  0
 23 24  1  0  0  0
 27 26  1  0  0  0
 27 28  2  0  0  0
 27 31  1  0  0  0
 27 29  1  0  0  0
 25 26  1  0  0  0
 32 33  1  0  0  0
 32 31  1  0  0  0
 29 30  1  0  0  0
 20 21  1  0  0  0
 20  2  1  0  0  0
  1  2  2  0  0  0
  2  3  1  0  0  0
  3  4  1  0  0  0
  4  5  1  0  0  0
  5  6  1  0  0  0
  6  7  1  0  0  0
  7  8  1  0  0  0
  8  9  1  0  0  0
  9 10  1  0  0  0
 10 11  2  0  0  0
 11 12  1  0  0  0
 12 13  1  0  0  0
 13 14  1  0  0  0
 14 15  1  0  0  0
 15 16  1  0  0  0
 16 17  1  0  0  0
 17 18  1  0  0  0
 18 19  1  0  0  0
M  CHG 1  28  -1
M  END
> <minimizedAffinity>
-7.51616

> <CNNscore>
0.5975692272

> <CNNaffinity>
6.6841993332

> <CNN_VS>
3.9942717552

> <CNNaffinity_variance>
0.4462361336

$$$$
