/media/chris/experiments/cd1a-new-docking/inputs/ligands/4x6e_ligand.pdb


 37 36  0  0  0  0  0  0  0  0999 V2000
  -40.6535   60.5710   66.2011 O   0  0  0  0  0  0  0  0  0  0  0  0
  -41.1118   59.4599   66.1017 C   0  0  0  0  0  0  0  0  0  0  0  0
  -42.2403   58.9116   66.9201 C   0  0  0  0  0  0  0  0  0  0  0  0
  -43.5216   59.7275   66.7973 C   0  0  0  0  0  0  0  0  0  0  0  0
  -44.7076   58.9505   66.2522 C   0  0  0  0  0  0  0  0  0  0  0  0
  -45.8259   58.7669   67.2630 C   0  0  0  0  0  0  0  0  0  0  0  0
  -46.6568   57.5213   67.0068 C   0  0  0  0  0  0  0  0  0  0  0  0
  -47.6246   57.7054   65.8591 C   0  0  0  0  0  0  0  0  0  0  0  0
  -48.3501   59.0356   65.8476 C   0  0  0  0  0  0  0  0  0  0  0  0
  -48.3116   59.7325   64.5418 C   0  0  0  0  0  0  0  0  0  0  0  0
  -49.2613   59.7228   63.6292 C   0  0  0  0  0  0  0  0  0  0  0  0
  -50.5926   59.0504   63.7184 C   0  0  0  0  0  0  0  0  0  0  0  0
  -50.8996   58.3150   62.4127 C   0  0  0  0  0  0  0  0  0  0  0  0
  -49.6874   57.9576   61.5651 C   0  0  0  0  0  0  0  0  0  0  0  0
  -49.9782   57.0517   60.3747 C   0  0  0  0  0  0  0  0  0  0  0  0
  -48.9778   57.2050   59.2339 C   0  0  0  0  0  0  0  0  0  0  0  0
  -48.0270   56.0271   59.0907 C   0  0  0  0  0  0  0  0  0  0  0  0
  -47.3822   55.8731   57.7215 C   0  0  0  0  0  0  0  0  0  0  0  0
  -47.5184   57.1014   56.8752 C   0  0  0  0  0  0  0  0  0  0  0  0
  -40.6830   58.5457   65.2264 O   0  0  0  0  0  0  0  0  0  0  0  0
  -41.6104   57.5159   64.8187 C   0  0  0  0  0  0  0  0  0  0  0  0
  -41.2845   56.9842   63.4391 C   0  0  0  0  0  0  0  0  0  0  0  0
  -41.5965   55.5882   63.3377 O   0  0  0  0  0  0  0  0  0  0  0  0
  -42.5503   55.4604   63.4588 H   0  0  0  0  0  0  0  0  0  0  0  0
  -41.9983   57.7397   62.3426 C   0  0  0  0  0  0  0  0  0  0  0  0
  -41.1874   58.8177   61.8158 O   0  0  0  0  0  0  0  0  0  0  0  0
  -39.6518   58.8883   61.3544 P   0  0  0  0  0  0  0  0  0  0  0  0
  -39.4754   60.1211   60.4694 O   0  0  0  0  0  0  0  0  0  0  0  0
  -39.3425   57.6847   60.5518 O   0  0  0  0  0  0  0  0  0  0  0  0
  -39.9510   57.6334   59.7982 H   0  0  0  0  0  0  0  0  0  0  0  0
  -38.6405   59.0135   62.6454 O   0  0  0  0  0  0  0  0  0  0  0  0
  -37.6810   58.0106   63.0773 C   0  0  0  0  0  0  0  0  0  0  0  0
  -36.3198   58.3079   62.4986 C   0  0  0  0  0  0  0  0  0  0  0  0
  -35.1847   58.4783   63.4912 N   0  0  0  0  0  0  0  0  0  0  0  0
  -35.2010   59.8548   64.0744 C   0  0  0  0  0  0  0  0  0  0  0  0
  -33.8901   58.2691   62.7766 C   0  0  0  0  0  0  0  0  0  0  0  0
  -35.3052   57.4782   64.6056 C   0  0  0  0  0  0  0  0  0  0  0  0
 34 33  1  0  0  0
 34 35  1  0  0  0
 34 36  1  0  0  0
 34 37  1  0  0  0
 22 23  1  0  0  0
 22 25  1  0  0  0
 22 21  1  0  0  0
 23 24  1  0  0  0
 27 26  1  0  0  0
 27 28  2  0  0  0
 27 31  1  0  0  0
 27 29  1  0  0  0
 25 26  1  0  0  0
 32 33  1  0  0  0
 32 31  1  0  0  0
 29 30  1  0  0  0
 20 21  1  0  0  0
 20  2  1  0  0  0
  1  2  2  0  0  0
  2  3  1  0  0  0
  3  4  1  0  0  0
  4  5  1  0  0  0
  5  6  1  0  0  0
  6  7  1  0  0  0
  7  8  1  0  0  0
  8  9  1  0  0  0
  9 10  1  0  0  0
 10 11  2  0  0  0
 11 12  1  0  0  0
 12 13  1  0  0  0
 13 14  1  0  0  0
 14 15  1  0  0  0
 15 16  1  0  0  0
 16 17  1  0  0  0
 17 18  1  0  0  0
 18 19  1  0  0  0
M  CHG 1  28  -1
M  END
> <minimizedAffinity>
-7.87008

> <CNNscore>
0.8328003287

> <CNNaffinity>
7.1807379723

> <CNN_VS>
5.9801211357

> <CNNaffinity_variance>
0.2871156335

$$$$
/media/chris/experiments/cd1a-new-docking/inputs/ligands/4x6e_ligand.pdb


 37 36  0  0  0  0  0  0  0  0999 V2000
  -40.8709   60.9804   66.2177 O   0  0  0  0  0  0  0  0  0  0  0  0
  -41.7066   60.1221   66.0788 C   0  0  0  0  0  0  0  0  0  0  0  0
  -42.8296   59.8439   67.0304 C   0  0  0  0  0  0  0  0  0  0  0  0
  -44.0276   59.1768   66.3653 C   0  0  0  0  0  0  0  0  0  0  0  0
  -45.2510   59.0563   67.2576 C   0  0  0  0  0  0  0  0  0  0  0  0
  -46.5614   59.2574   66.5169 C   0  0  0  0  0  0  0  0  0  0  0  0
  -46.3996   60.0527   65.2328 C   0  0  0  0  0  0  0  0  0  0  0  0
  -47.3260   59.5687   64.1396 C   0  0  0  0  0  0  0  0  0  0  0  0
  -48.4669   60.5103   63.8112 C   0  0  0  0  0  0  0  0  0  0  0  0
  -49.7398   60.1750   64.4890 C   0  0  0  0  0  0  0  0  0  0  0  0
  -50.8606   59.8132   63.8993 C   0  0  0  0  0  0  0  0  0  0  0  0
  -51.0896   59.6207   62.4354 C   0  0  0  0  0  0  0  0  0  0  0  0
  -50.9519   58.1416   62.0707 C   0  0  0  0  0  0  0  0  0  0  0  0
  -49.6098   57.7386   61.4775 C   0  0  0  0  0  0  0  0  0  0  0  0
  -49.6818   56.6879   60.3760 C   0  0  0  0  0  0  0  0  0  0  0  0
  -48.8433   57.0326   59.1496 C   0  0  0  0  0  0  0  0  0  0  0  0
  -47.7153   56.0486   58.8828 C   0  0  0  0  0  0  0  0  0  0  0  0
  -47.3396   55.8694   57.4196 C   0  0  0  0  0  0  0  0  0  0  0  0
  -47.4043   57.1490   56.6436 C   0  0  0  0  0  0  0  0  0  0  0  0
  -41.7623   59.2893   65.0352 O   0  0  0  0  0  0  0  0  0  0  0  0
  -40.6440   59.2791   64.1208 C   0  0  0  0  0  0  0  0  0  0  0  0
  -39.6557   58.1830   64.4582 C   0  0  0  0  0  0  0  0  0  0  0  0
  -39.4792   57.2892   63.3508 O   0  0  0  0  0  0  0  0  0  0  0  0
  -39.1002   57.7741   62.6011 H   0  0  0  0  0  0  0  0  0  0  0  0
  -38.3119   58.7248   64.8859 C   0  0  0  0  0  0  0  0  0  0  0  0
  -37.9533   59.9184   64.1482 O   0  0  0  0  0  0  0  0  0  0  0  0
  -37.2592   61.2954   64.5930 P   0  0  0  0  0  0  0  0  0  0  0  0
  -37.7973   61.6781   65.9708 O   0  0  0  0  0  0  0  0  0  0  0  0
  -37.6403   62.3510   63.6292 O   0  0  0  0  0  0  0  0  0  0  0  0
  -38.6071   62.4215   63.5924 H   0  0  0  0  0  0  0  0  0  0  0  0
  -35.6243   61.1429   64.6861 O   0  0  0  0  0  0  0  0  0  0  0  0
  -34.6486   62.0566   64.1150 C   0  0  0  0  0  0  0  0  0  0  0  0
  -34.8618   63.4500   64.6528 C   0  0  0  0  0  0  0  0  0  0  0  0
  -33.6200   64.3029   64.8345 N   0  0  0  0  0  0  0  0  0  0  0  0
  -33.6737   65.5027   63.9442 C   0  0  0  0  0  0  0  0  0  0  0  0
  -32.4227   63.4853   64.4758 C   0  0  0  0  0  0  0  0  0  0  0  0
  -33.5002   64.7617   66.2599 C   0  0  0  0  0  0  0  0  0  0  0  0
 34 33  1  0  0  0
 34 35  1  0  0  0
 34 36  1  0  0  0
 34 37  1  0  0  0
 22 23  1  0  0  0
 22 25  1  0  0  0
 22 21  1  0  0  0
 23 24  1  0  0  0
 27 26  1  0  0  0
 27 28  2  0  0  0
 27 31  1  0  0  0
 27 29  1  0  0  0
 25 26  1  0  0  0
 32 33  1  0  0  0
 32 31  1  0  0  0
 29 30  1  0  0  0
 20 21  1  0  0  0
 20  2  1  0  0  0
  1  2  2  0  0  0
  2  3  1  0  0  0
  3  4  1  0  0  0
  4  5  1  0  0  0
  5  6  1  0  0  0
  6  7  1  0  0  0
  7  8  1  0  0  0
  8  9  1  0  0  0
  9 10  1  0  0  0
 10 11  2  0  0  0
 11 12  1  0  0  0
 12 13  1  0  0  0
 13 14  1  0  0  0
 14 15  1  0  0  0
 15 16  1  0  0  0
 16 17  1  0  0  0
 17 18  1  0  0  0
 18 19  1  0  0  0
M  CHG 1  28  -1
M  END
> <minimizedAffinity>
-8.06637

> <CNNscore>
0.8117237687

> <CNNaffinity>
6.4208550453

> <CNN_VS>
5.2119607925

> <CNNaffinity_variance>
0.1994796097

$$$$
/media/chris/experiments/cd1a-new-docking/inputs/ligands/4x6e_ligand.pdb


 37 36  0  0  0  0  0  0  0  0999 V2000
  -40.8942   56.7339   63.2768 O   0  0  0  0  0  0  0  0  0  0  0  0
  -40.7149   57.6452   64.0462 C   0  0  0  0  0  0  0  0  0  0  0  0
  -41.5572   57.9425   65.2487 C   0  0  0  0  0  0  0  0  0  0  0  0
  -43.0467   58.0151   64.9342 C   0  0  0  0  0  0  0  0  0  0  0  0
  -43.9377   57.3550   65.9723 C   0  0  0  0  0  0  0  0  0  0  0  0
  -45.4161   57.6323   65.7641 C   0  0  0  0  0  0  0  0  0  0  0  0
  -45.8516   58.9745   66.3265 C   0  0  0  0  0  0  0  0  0  0  0  0
  -47.3298   59.0088   66.6450 C   0  0  0  0  0  0  0  0  0  0  0  0
  -48.2286   59.2904   65.4580 C   0  0  0  0  0  0  0  0  0  0  0  0
  -49.6748   59.1902   65.7591 C   0  0  0  0  0  0  0  0  0  0  0  0
  -50.6575   59.6246   64.9974 C   0  0  0  0  0  0  0  0  0  0  0  0
  -50.5419   60.2715   63.6555 C   0  0  0  0  0  0  0  0  0  0  0  0
  -51.1725   59.3796   62.5848 C   0  0  0  0  0  0  0  0  0  0  0  0
  -50.1995   58.7780   61.5814 C   0  0  0  0  0  0  0  0  0  0  0  0
  -50.7005   57.5280   60.8680 C   0  0  0  0  0  0  0  0  0  0  0  0
  -49.5850   56.6887   60.2538 C   0  0  0  0  0  0  0  0  0  0  0  0
  -48.8612   57.3769   59.1074 C   0  0  0  0  0  0  0  0  0  0  0  0
  -48.0629   56.4574   58.1955 C   0  0  0  0  0  0  0  0  0  0  0  0
  -47.5949   57.1419   56.9480 C   0  0  0  0  0  0  0  0  0  0  0  0
  -39.7174   58.5286   63.9452 O   0  0  0  0  0  0  0  0  0  0  0  0
  -39.0106   58.8881   65.1526 C   0  0  0  0  0  0  0  0  0  0  0  0
  -38.8248   60.3864   65.2668 C   0  0  0  0  0  0  0  0  0  0  0  0
  -39.8171   60.9649   66.1253 O   0  0  0  0  0  0  0  0  0  0  0  0
  -39.7150   60.6103   67.0223 H   0  0  0  0  0  0  0  0  0  0  0  0
  -37.4488   60.7643   65.7629 C   0  0  0  0  0  0  0  0  0  0  0  0
  -37.3498   62.1805   66.0489 O   0  0  0  0  0  0  0  0  0  0  0  0
  -36.1003   63.1860   66.1073 P   0  0  0  0  0  0  0  0  0  0  0  0
  -34.8753   62.3989   66.5700 O   0  0  0  0  0  0  0  0  0  0  0  0
  -36.3867   64.2401   67.1049 O   0  0  0  0  0  0  0  0  0  0  0  0
  -36.5695   63.8304   67.9649 H   0  0  0  0  0  0  0  0  0  0  0  0
  -35.7840   63.8396   64.6315 O   0  0  0  0  0  0  0  0  0  0  0  0
  -34.4783   63.9234   63.9982 C   0  0  0  0  0  0  0  0  0  0  0  0
  -33.8884   65.2973   64.1994 C   0  0  0  0  0  0  0  0  0  0  0  0
  -32.6142   65.3734   65.0199 N   0  0  0  0  0  0  0  0  0  0  0  0
  -32.8860   65.9920   66.3535 C   0  0  0  0  0  0  0  0  0  0  0  0
  -31.6237   66.2168   64.2863 C   0  0  0  0  0  0  0  0  0  0  0  0
  -32.0404   64.0011   65.2297 C   0  0  0  0  0  0  0  0  0  0  0  0
 34 33  1  0  0  0
 34 35  1  0  0  0
 34 36  1  0  0  0
 34 37  1  0  0  0
 22 23  1  0  0  0
 22 25  1  0  0  0
 22 21  1  0  0  0
 23 24  1  0  0  0
 27 26  1  0  0  0
 27 28  2  0  0  0
 27 31  1  0  0  0
 27 29  1  0  0  0
 25 26  1  0  0  0
 32 33  1  0  0  0
 32 31  1  0  0  0
 29 30  1  0  0  0
 20 21  1  0  0  0
 20  2  1  0  0  0
  1  2  2  0  0  0
  2  3  1  0  0  0
  3  4  1  0  0  0
  4  5  1  0  0  0
  5  6  1  0  0  0
  6  7  1  0  0  0
  7  8  1  0  0  0
  8  9  1  0  0  0
  9 10  1  0  0  0
 10 11  2  0  0  0
 11 12  1  0  0  0
 12 13  1  0  0  0
 13 14  1  0  0  0
 14 15  1  0  0  0
 15 16  1  0  0  0
 16 17  1  0  0  0
 17 18  1  0  0  0
 18 19  1  0  0  0
M  CHG 1  28  -1
M  END
> <minimizedAffinity>
-8.04316

> <CNNscore>
0.7223944664

> <CNNaffinity>
6.2686505318

> <CNN_VS>
4.5284385681

> <CNNaffinity_variance>
0.3434386253

$$$$
/media/chris/experiments/cd1a-new-docking/inputs/ligands/4x6e_ligand.pdb


 37 36  0  0  0  0  0  0  0  0999 V2000
  -41.9075   58.1313   65.4782 O   0  0  0  0  0  0  0  0  0  0  0  0
  -42.6620   58.5647   64.6430 C   0  0  0  0  0  0  0  0  0  0  0  0
  -44.1358   58.7611   64.8250 C   0  0  0  0  0  0  0  0  0  0  0  0
  -44.5291   59.0427   66.2702 C   0  0  0  0  0  0  0  0  0  0  0  0
  -45.9969   59.3829   66.4636 C   0  0  0  0  0  0  0  0  0  0  0  0
  -46.7589   58.3398   67.2621 C   0  0  0  0  0  0  0  0  0  0  0  0
  -47.5048   57.3503   66.3835 C   0  0  0  0  0  0  0  0  0  0  0  0
  -48.2877   58.0365   65.2864 C   0  0  0  0  0  0  0  0  0  0  0  0
  -49.7279   58.3519   65.6363 C   0  0  0  0  0  0  0  0  0  0  0  0
  -50.1855   59.6799   65.1680 C   0  0  0  0  0  0  0  0  0  0  0  0
  -50.7744   59.9362   64.0181 C   0  0  0  0  0  0  0  0  0  0  0  0
  -51.1475   58.9539   62.9558 C   0  0  0  0  0  0  0  0  0  0  0  0
  -50.2034   59.0877   61.7597 C   0  0  0  0  0  0  0  0  0  0  0  0
  -49.9864   57.8147   60.9548 C   0  0  0  0  0  0  0  0  0  0  0  0
  -50.1654   57.9662   59.4490 C   0  0  0  0  0  0  0  0  0  0  0  0
  -49.0147   57.3810   58.6369 C   0  0  0  0  0  0  0  0  0  0  0  0
  -48.1277   56.4322   59.4274 C   0  0  0  0  0  0  0  0  0  0  0  0
  -47.0384   55.7375   58.6242 C   0  0  0  0  0  0  0  0  0  0  0  0
  -46.9758   56.2086   57.2037 C   0  0  0  0  0  0  0  0  0  0  0  0
  -42.2873   58.9505   63.4197 O   0  0  0  0  0  0  0  0  0  0  0  0
  -42.4404   58.0050   62.3384 C   0  0  0  0  0  0  0  0  0  0  0  0
  -41.1220   57.7267   61.6480 C   0  0  0  0  0  0  0  0  0  0  0  0
  -40.8717   58.6839   60.6099 O   0  0  0  0  0  0  0  0  0  0  0  0
  -40.7922   59.5690   60.9985 H   0  0  0  0  0  0  0  0  0  0  0  0
  -39.9561   57.7105   62.6086 C   0  0  0  0  0  0  0  0  0  0  0  0
  -38.9292   58.6569   62.2247 O   0  0  0  0  0  0  0  0  0  0  0  0
  -38.7092   60.2096   62.5661 P   0  0  0  0  0  0  0  0  0  0  0  0
  -40.0808   60.8568   62.7508 O   0  0  0  0  0  0  0  0  0  0  0  0
  -38.0346   60.8558   61.4190 O   0  0  0  0  0  0  0  0  0  0  0  0
  -38.5653   60.7271   60.6173 H   0  0  0  0  0  0  0  0  0  0  0  0
  -37.8404   60.4047   63.9488 O   0  0  0  0  0  0  0  0  0  0  0  0
  -36.4072   60.6334   64.0303 C   0  0  0  0  0  0  0  0  0  0  0  0
  -36.0558   61.2754   65.3496 C   0  0  0  0  0  0  0  0  0  0  0  0
  -35.3129   62.5969   65.2828 N   0  0  0  0  0  0  0  0  0  0  0  0
  -34.2708   62.5584   64.2115 C   0  0  0  0  0  0  0  0  0  0  0  0
  -34.6482   62.8380   66.5983 C   0  0  0  0  0  0  0  0  0  0  0  0
  -36.2650   63.7221   64.9929 C   0  0  0  0  0  0  0  0  0  0  0  0
 34 33  1  0  0  0
 34 35  1  0  0  0
 34 36  1  0  0  0
 34 37  1  0  0  0
 22 23  1  0  0  0
 22 25  1  0  0  0
 22 21  1  0  0  0
 23 24  1  0  0  0
 27 26  1  0  0  0
 27 28  2  0  0  0
 27 31  1  0  0  0
 27 29  1  0  0  0
 25 26  1  0  0  0
 32 33  1  0  0  0
 32 31  1  0  0  0
 29 30  1  0  0  0
 20 21  1  0  0  0
 20  2  1  0  0  0
  1  2  2  0  0  0
  2  3  1  0  0  0
  3  4  1  0  0  0
  4  5  1  0  0  0
  5  6  1  0  0  0
  6  7  1  0  0  0
  7  8  1  0  0  0
  8  9  1  0  0  0
  9 10  1  0  0  0
 10 11  2  0  0  0
 11 12  1  0  0  0
 12 13  1  0  0  0
 13 14  1  0  0  0
 14 15  1  0  0  0
 15 16  1  0  0  0
 16 17  1  0  0  0
 17 18  1  0  0  0
 18 19  1  0  0  0
M  CHG 1  28  -1
M  END
> <minimizedAffinity>
-7.80824

> <CNNscore>
0.6992009282

> <CNNaffinity>
6.8655691147

> <CNN_VS>
4.8004121780

> <CNNaffinity_variance>
0.3437905908

$$$$
/media/chris/experiments/cd1a-new-docking/inputs/ligands/4x6e_ligand.pdb


 37 36  0  0  0  0  0  0  0  0999 V2000
  -42.8053   55.5142   64.9366 O   0  0  0  0  0  0  0  0  0  0  0  0
  -43.0288   56.6620   65.2321 C   0  0  0  0  0  0  0  0  0  0  0  0
  -44.3626   57.3371   65.1380 C   0  0  0  0  0  0  0  0  0  0  0  0
  -45.0669   57.4633   66.4836 C   0  0  0  0  0  0  0  0  0  0  0  0
  -45.5355   58.8699   66.8144 C   0  0  0  0  0  0  0  0  0  0  0  0
  -45.7712   59.7327   65.5871 C   0  0  0  0  0  0  0  0  0  0  0  0
  -47.2136   60.1896   65.4528 C   0  0  0  0  0  0  0  0  0  0  0  0
  -48.1552   59.3699   66.3067 C   0  0  0  0  0  0  0  0  0  0  0  0
  -49.3091   58.7395   65.5537 C   0  0  0  0  0  0  0  0  0  0  0  0
  -50.4862   59.6249   65.4023 C   0  0  0  0  0  0  0  0  0  0  0  0
  -50.9332   60.1346   64.2731 C   0  0  0  0  0  0  0  0  0  0  0  0
  -50.3879   59.9064   62.9009 C   0  0  0  0  0  0  0  0  0  0  0  0
  -51.1190   58.7420   62.2305 C   0  0  0  0  0  0  0  0  0  0  0  0
  -50.2269   57.7334   61.5218 C   0  0  0  0  0  0  0  0  0  0  0  0
  -50.4389   57.6319   60.0161 C   0  0  0  0  0  0  0  0  0  0  0  0
  -49.1398   57.6222   59.2173 C   0  0  0  0  0  0  0  0  0  0  0  0
  -48.3897   56.3013   59.2842 C   0  0  0  0  0  0  0  0  0  0  0  0
  -47.3984   56.0572   58.1564 C   0  0  0  0  0  0  0  0  0  0  0  0
  -47.5769   57.0070   57.0120 C   0  0  0  0  0  0  0  0  0  0  0  0
  -42.1096   57.5087   65.7053 O   0  0  0  0  0  0  0  0  0  0  0  0
  -42.0361   58.8239   65.1126 C   0  0  0  0  0  0  0  0  0  0  0  0
  -41.6834   59.8805   66.1380 C   0  0  0  0  0  0  0  0  0  0  0  0
  -41.9669   59.4235   67.4674 O   0  0  0  0  0  0  0  0  0  0  0  0
  -41.4122   58.6540   67.6699 H   0  0  0  0  0  0  0  0  0  0  0  0
  -40.2383   60.3127   66.0524 C   0  0  0  0  0  0  0  0  0  0  0  0
  -39.8766   60.7191   64.7103 O   0  0  0  0  0  0  0  0  0  0  0  0
  -38.4685   60.7797   63.9426 P   0  0  0  0  0  0  0  0  0  0  0  0
  -37.5299   59.7598   64.5854 O   0  0  0  0  0  0  0  0  0  0  0  0
  -37.8896   62.1294   64.1205 O   0  0  0  0  0  0  0  0  0  0  0  0
  -37.8009   62.3210   65.0672 H   0  0  0  0  0  0  0  0  0  0  0  0
  -38.6361   60.4142   62.3478 O   0  0  0  0  0  0  0  0  0  0  0  0
  -39.7972   59.7923   61.7330 C   0  0  0  0  0  0  0  0  0  0  0  0
  -39.8812   58.3389   62.1289 C   0  0  0  0  0  0  0  0  0  0  0  0
  -40.9286   57.5028   61.4172 N   0  0  0  0  0  0  0  0  0  0  0  0
  -41.0153   56.1409   62.0277 C   0  0  0  0  0  0  0  0  0  0  0  0
  -40.5373   57.3676   59.9822 C   0  0  0  0  0  0  0  0  0  0  0  0
  -42.2763   58.1605   61.5055 C   0  0  0  0  0  0  0  0  0  0  0  0
 34 33  1  0  0  0
 34 35  1  0  0  0
 34 36  1  0  0  0
 34 37  1  0  0  0
 22 23  1  0  0  0
 22 25  1  0  0  0
 22 21  1  0  0  0
 23 24  1  0  0  0
 27 26  1  0  0  0
 27 28  2  0  0  0
 27 31  1  0  0  0
 27 29  1  0  0  0
 25 26  1  0  0  0
 32 33  1  0  0  0
 32 31  1  0  0  0
 29 30  1  0  0  0
 20 21  1  0  0  0
 20  2  1  0  0  0
  1  2  2  0  0  0
  2  3  1  0  0  0
  3  4  1  0  0  0
  4  5  1  0  0  0
  5  6  1  0  0  0
  6  7  1  0  0  0
  7  8  1  0  0  0
  8  9  1  0  0  0
  9 10  1  0  0  0
 10 11  2  0  0  0
 11 12  1  0  0  0
 12 13  1  0  0  0
 13 14  1  0  0  0
 14 15  1  0  0  0
 15 16  1  0  0  0
 16 17  1  0  0  0
 17 18  1  0  0  0
 18 19  1  0  0  0
M  CHG 1  28  -1
M  END
> <minimizedAffinity>
-8.09187

> <CNNscore>
0.6942501664

> <CNNaffinity>
6.9524254799

> <CNN_VS>
4.8267226219

> <CNNaffinity_variance>
0.4608288705

$$$$
/media/chris/experiments/cd1a-new-docking/inputs/ligands/4x6e_ligand.pdb


 37 36  0  0  0  0  0  0  0  0999 V2000
  -42.2070   56.5501   63.9892 O   0  0  0  0  0  0  0  0  0  0  0  0
  -42.3147   57.7004   63.6433 C   0  0  0  0  0  0  0  0  0  0  0  0
  -43.4619   58.2675   62.8647 C   0  0  0  0  0  0  0  0  0  0  0  0
  -44.5182   58.9236   63.7458 C   0  0  0  0  0  0  0  0  0  0  0  0
  -44.7215   58.2443   65.0892 C   0  0  0  0  0  0  0  0  0  0  0  0
  -46.0090   58.6517   65.7838 C   0  0  0  0  0  0  0  0  0  0  0  0
  -46.6353   57.5203   66.5807 C   0  0  0  0  0  0  0  0  0  0  0  0
  -47.9867   57.1160   66.0350 C   0  0  0  0  0  0  0  0  0  0  0  0
  -48.4685   57.9400   64.8581 C   0  0  0  0  0  0  0  0  0  0  0  0
  -49.7718   58.6062   65.0815 C   0  0  0  0  0  0  0  0  0  0  0  0
  -50.5108   59.1922   64.1621 C   0  0  0  0  0  0  0  0  0  0  0  0
  -50.2278   59.2817   62.6978 C   0  0  0  0  0  0  0  0  0  0  0  0
  -51.1683   58.3579   61.9221 C   0  0  0  0  0  0  0  0  0  0  0  0
  -50.5597   57.6839   60.7011 C   0  0  0  0  0  0  0  0  0  0  0  0
  -49.1652   57.1067   60.9120 C   0  0  0  0  0  0  0  0  0  0  0  0
  -48.5555   56.5095   59.6481 C   0  0  0  0  0  0  0  0  0  0  0  0
  -48.8282   57.3234   58.3931 C   0  0  0  0  0  0  0  0  0  0  0  0
  -47.8471   57.1076   57.2507 C   0  0  0  0  0  0  0  0  0  0  0  0
  -47.0545   55.8451   57.3980 C   0  0  0  0  0  0  0  0  0  0  0  0
  -41.4203   58.6545   63.9181 O   0  0  0  0  0  0  0  0  0  0  0  0
  -40.0264   58.2784   63.9650 C   0  0  0  0  0  0  0  0  0  0  0  0
  -39.2249   58.9660   62.8801 C   0  0  0  0  0  0  0  0  0  0  0  0
  -39.7511   60.2700   62.5985 O   0  0  0  0  0  0  0  0  0  0  0  0
  -39.6725   60.8278   63.3880 H   0  0  0  0  0  0  0  0  0  0  0  0
  -37.7586   59.0797   63.2257 C   0  0  0  0  0  0  0  0  0  0  0  0
  -37.5599   59.5315   64.5872 O   0  0  0  0  0  0  0  0  0  0  0  0
  -37.4526   60.9962   65.2344 P   0  0  0  0  0  0  0  0  0  0  0  0
  -38.4907   61.1024   66.3503 O   0  0  0  0  0  0  0  0  0  0  0  0
  -37.7749   61.9983   64.1950 O   0  0  0  0  0  0  0  0  0  0  0  0
  -38.6578   61.8188   63.8355 H   0  0  0  0  0  0  0  0  0  0  0  0
  -35.9603   61.2650   65.8715 O   0  0  0  0  0  0  0  0  0  0  0  0
  -35.1669   62.4716   65.7055 C   0  0  0  0  0  0  0  0  0  0  0  0
  -34.1972   62.3049   64.5619 C   0  0  0  0  0  0  0  0  0  0  0  0
  -33.3953   63.5321   64.1699 N   0  0  0  0  0  0  0  0  0  0  0  0
  -34.2823   64.7326   64.0860 C   0  0  0  0  0  0  0  0  0  0  0  0
  -32.7769   63.2910   62.8320 C   0  0  0  0  0  0  0  0  0  0  0  0
  -32.3133   63.7980   65.1774 C   0  0  0  0  0  0  0  0  0  0  0  0
 34 33  1  0  0  0
 34 35  1  0  0  0
 34 36  1  0  0  0
 34 37  1  0  0  0
 22 23  1  0  0  0
 22 25  1  0  0  0
 22 21  1  0  0  0
 23 24  1  0  0  0
 27 26  1  0  0  0
 27 28  2  0  0  0
 27 31  1  0  0  0
 27 29  1  0  0  0
 25 26  1  0  0  0
 32 33  1  0  0  0
 32 31  1  0  0  0
 29 30  1  0  0  0
 20 21  1  0  0  0
 20  2  1  0  0  0
  1  2  2  0  0  0
  2  3  1  0  0  0
  3  4  1  0  0  0
  4  5  1  0  0  0
  5  6  1  0  0  0
  6  7  1  0  0  0
  7  8  1  0  0  0
  8  9  1  0  0  0
  9 10  1  0  0  0
 10 11  2  0  0  0
 11 12  1  0  0  0
 12 13  1  0  0  0
 13 14  1  0  0  0
 14 15  1  0  0  0
 15 16  1  0  0  0
 16 17  1  0  0  0
 17 18  1  0  0  0
 18 19  1  0  0  0
M  CHG 1  28  -1
M  END
> <minimizedAffinity>
-7.79510

> <CNNscore>
0.6801588535

> <CNNaffinity>
6.5051794052

> <CNN_VS>
4.4245553017

> <CNNaffinity_variance>
0.2987228930

$$$$
/media/chris/experiments/cd1a-new-docking/inputs/ligands/4x6e_ligand.pdb


 37 36  0  0  0  0  0  0  0  0999 V2000
  -40.0510   60.8828   65.9188 O   0  0  0  0  0  0  0  0  0  0  0  0
  -40.8860   60.3676   65.2174 C   0  0  0  0  0  0  0  0  0  0  0  0
  -41.8179   59.2737   65.6403 C   0  0  0  0  0  0  0  0  0  0  0  0
  -42.5805   59.5970   66.9196 C   0  0  0  0  0  0  0  0  0  0  0  0
  -44.0181   59.1065   66.9312 C   0  0  0  0  0  0  0  0  0  0  0  0
  -44.5751   58.8344   65.5449 C   0  0  0  0  0  0  0  0  0  0  0  0
  -46.0532   58.4846   65.5590 C   0  0  0  0  0  0  0  0  0  0  0  0
  -46.8362   59.3480   66.5229 C   0  0  0  0  0  0  0  0  0  0  0  0
  -48.2485   59.6732   66.0805 C   0  0  0  0  0  0  0  0  0  0  0  0
  -48.9152   58.5792   65.3383 C   0  0  0  0  0  0  0  0  0  0  0  0
  -49.4664   58.6744   64.1459 C   0  0  0  0  0  0  0  0  0  0  0  0
  -49.5085   59.8798   63.2640 C   0  0  0  0  0  0  0  0  0  0  0  0
  -50.4809   59.6511   62.1056 C   0  0  0  0  0  0  0  0  0  0  0  0
  -51.0338   58.2383   61.9877 C   0  0  0  0  0  0  0  0  0  0  0  0
  -50.5818   57.4708   60.7511 C   0  0  0  0  0  0  0  0  0  0  0  0
  -49.6519   58.2700   59.8442 C   0  0  0  0  0  0  0  0  0  0  0  0
  -49.0203   57.4444   58.7346 C   0  0  0  0  0  0  0  0  0  0  0  0
  -48.0825   56.3397   59.1978 C   0  0  0  0  0  0  0  0  0  0  0  0
  -47.2244   55.8062   58.0919 C   0  0  0  0  0  0  0  0  0  0  0  0
  -41.1146   60.7099   63.9461 O   0  0  0  0  0  0  0  0  0  0  0  0
  -42.4056   61.2702   63.6206 C   0  0  0  0  0  0  0  0  0  0  0  0
  -42.7709   61.0283   62.1713 C   0  0  0  0  0  0  0  0  0  0  0  0
  -43.2936   62.2186   61.5659 O   0  0  0  0  0  0  0  0  0  0  0  0
  -42.6096   62.9063   61.5616 H   0  0  0  0  0  0  0  0  0  0  0  0
  -41.6049   60.5201   61.3561 C   0  0  0  0  0  0  0  0  0  0  0  0
  -41.7323   59.1091   61.0560 O   0  0  0  0  0  0  0  0  0  0  0  0
  -41.1304   57.7969   61.7573 P   0  0  0  0  0  0  0  0  0  0  0  0
  -40.9011   56.7409   60.6773 O   0  0  0  0  0  0  0  0  0  0  0  0
  -42.1248   57.2763   62.7209 O   0  0  0  0  0  0  0  0  0  0  0  0
  -42.9590   57.0969   62.2596 H   0  0  0  0  0  0  0  0  0  0  0  0
  -39.6980   58.1149   62.5003 O   0  0  0  0  0  0  0  0  0  0  0  0
  -38.5500   57.2249   62.5554 C   0  0  0  0  0  0  0  0  0  0  0  0
  -37.2886   57.9792   62.2143 C   0  0  0  0  0  0  0  0  0  0  0  0
  -36.3974   58.3694   63.3788 N   0  0  0  0  0  0  0  0  0  0  0  0
  -36.5342   57.3854   64.4959 C   0  0  0  0  0  0  0  0  0  0  0  0
  -36.8125   59.7185   63.8666 C   0  0  0  0  0  0  0  0  0  0  0  0
  -34.9590   58.4170   62.9480 C   0  0  0  0  0  0  0  0  0  0  0  0
 34 33  1  0  0  0
 34 35  1  0  0  0
 34 36  1  0  0  0
 34 37  1  0  0  0
 22 23  1  0  0  0
 22 25  1  0  0  0
 22 21  1  0  0  0
 23 24  1  0  0  0
 27 26  1  0  0  0
 27 28  2  0  0  0
 27 31  1  0  0  0
 27 29  1  0  0  0
 25 26  1  0  0  0
 32 33  1  0  0  0
 32 31  1  0  0  0
 29 30  1  0  0  0
 20 21  1  0  0  0
 20  2  1  0  0  0
  1  2  2  0  0  0
  2  3  1  0  0  0
  3  4  1  0  0  0
  4  5  1  0  0  0
  5  6  1  0  0  0
  6  7  1  0  0  0
  7  8  1  0  0  0
  8  9  1  0  0  0
  9 10  1  0  0  0
 10 11  2  0  0  0
 11 12  1  0  0  0
 12 13  1  0  0  0
 13 14  1  0  0  0
 14 15  1  0  0  0
 15 16  1  0  0  0
 16 17  1  0  0  0
 17 18  1  0  0  0
 18 19  1  0  0  0
M  CHG 1  28  -1
M  END
> <minimizedAffinity>
-7.55697

> <CNNscore>
0.6794990301

> <CNNaffinity>
6.9536576271

> <CNN_VS>
4.7250037193

> <CNNaffinity_variance>
0.4108223021

$$$$
/media/chris/experiments/cd1a-new-docking/inputs/ligands/4x6e_ligand.pdb


 37 36  0  0  0  0  0  0  0  0999 V2000
  -38.8351   59.8971   66.4990 O   0  0  0  0  0  0  0  0  0  0  0  0
  -39.5185   59.2161   65.7752 C   0  0  0  0  0  0  0  0  0  0  0  0
  -40.9906   58.9896   65.9343 C   0  0  0  0  0  0  0  0  0  0  0  0
  -41.6542   59.9944   66.8685 C   0  0  0  0  0  0  0  0  0  0  0  0
  -43.1428   59.7703   67.0718 C   0  0  0  0  0  0  0  0  0  0  0  0
  -43.8197   59.0981   65.8903 C   0  0  0  0  0  0  0  0  0  0  0  0
  -45.0168   58.2550   66.2949 C   0  0  0  0  0  0  0  0  0  0  0  0
  -46.0508   59.0568   67.0535 C   0  0  0  0  0  0  0  0  0  0  0  0
  -47.3322   59.3240   66.2902 C   0  0  0  0  0  0  0  0  0  0  0  0
  -47.4870   58.5056   65.0660 C   0  0  0  0  0  0  0  0  0  0  0  0
  -48.0747   58.8837   63.9496 C   0  0  0  0  0  0  0  0  0  0  0  0
  -48.6746   60.2194   63.6522 C   0  0  0  0  0  0  0  0  0  0  0  0
  -49.9977   60.0477   62.9041 C   0  0  0  0  0  0  0  0  0  0  0  0
  -50.6438   58.6757   63.0287 C   0  0  0  0  0  0  0  0  0  0  0  0
  -50.8883   57.9563   61.7076 C   0  0  0  0  0  0  0  0  0  0  0  0
  -50.1359   58.5700   60.5315 C   0  0  0  0  0  0  0  0  0  0  0  0
  -49.6697   57.5509   59.5040 C   0  0  0  0  0  0  0  0  0  0  0  0
  -48.9515   56.3357   60.0712 C   0  0  0  0  0  0  0  0  0  0  0  0
  -47.7545   55.9399   59.2623 C   0  0  0  0  0  0  0  0  0  0  0  0
  -39.0593   58.5644   64.7028 O   0  0  0  0  0  0  0  0  0  0  0  0
  -37.9472   57.6613   64.8880 C   0  0  0  0  0  0  0  0  0  0  0  0
  -36.6686   58.2210   64.3013 C   0  0  0  0  0  0  0  0  0  0  0  0
  -35.7353   57.1731   64.0055 O   0  0  0  0  0  0  0  0  0  0  0  0
  -36.1101   56.5878   63.3290 H   0  0  0  0  0  0  0  0  0  0  0  0
  -36.9121   59.0431   63.0574 C   0  0  0  0  0  0  0  0  0  0  0  0
  -36.7173   60.4574   63.3003 O   0  0  0  0  0  0  0  0  0  0  0  0
  -37.7315   61.7012   63.3121 P   0  0  0  0  0  0  0  0  0  0  0  0
  -39.1452   61.1666   63.0885 O   0  0  0  0  0  0  0  0  0  0  0  0
  -37.3872   62.6040   62.1919 O   0  0  0  0  0  0  0  0  0  0  0  0
  -37.4199   62.1107   61.3573 H   0  0  0  0  0  0  0  0  0  0  0  0
  -37.6880   62.4998   64.7493 O   0  0  0  0  0  0  0  0  0  0  0  0
  -36.4956   62.7868   65.5295 C   0  0  0  0  0  0  0  0  0  0  0  0
  -35.7063   63.8996   64.8856 C   0  0  0  0  0  0  0  0  0  0  0  0
  -34.1985   63.7313   64.8570 N   0  0  0  0  0  0  0  0  0  0  0  0
  -33.8252   62.4741   64.1393 C   0  0  0  0  0  0  0  0  0  0  0  0
  -33.7000   63.6542   66.2627 C   0  0  0  0  0  0  0  0  0  0  0  0
  -33.5518   64.8962   64.1631 C   0  0  0  0  0  0  0  0  0  0  0  0
 34 33  1  0  0  0
 34 35  1  0  0  0
 34 36  1  0  0  0
 34 37  1  0  0  0
 22 23  1  0  0  0
 22 25  1  0  0  0
 22 21  1  0  0  0
 23 24  1  0  0  0
 27 26  1  0  0  0
 27 28  2  0  0  0
 27 31  1  0  0  0
 27 29  1  0  0  0
 25 26  1  0  0  0
 32 33  1  0  0  0
 32 31  1  0  0  0
 29 30  1  0  0  0
 20 21  1  0  0  0
 20  2  1  0  0  0
  1  2  2  0  0  0
  2  3  1  0  0  0
  3  4  1  0  0  0
  4  5  1  0  0  0
  5  6  1  0  0  0
  6  7  1  0  0  0
  7  8  1  0  0  0
  8  9  1  0  0  0
  9 10  1  0  0  0
 10 11  2  0  0  0
 11 12  1  0  0  0
 12 13  1  0  0  0
 13 14  1  0  0  0
 14 15  1  0  0  0
 15 16  1  0  0  0
 16 17  1  0  0  0
 17 18  1  0  0  0
 18 19  1  0  0  0
M  CHG 1  28  -1
M  END
> <minimizedAffinity>
-7.52575

> <CNNscore>
0.6294382811

> <CNNaffinity>
6.2870912552

> <CNN_VS>
3.9573359489

> <CNNaffinity_variance>
0.1252541691

$$$$
/media/chris/experiments/cd1a-new-docking/inputs/ligands/4x6e_ligand.pdb


 37 36  0  0  0  0  0  0  0  0999 V2000
  -41.9214   56.3979   64.5822 O   0  0  0  0  0  0  0  0  0  0  0  0
  -42.1765   57.2710   65.3742 C   0  0  0  0  0  0  0  0  0  0  0  0
  -43.3385   57.2709   66.3195 C   0  0  0  0  0  0  0  0  0  0  0  0
  -43.8556   58.6696   66.6339 C   0  0  0  0  0  0  0  0  0  0  0  0
  -45.0705   59.0841   65.8217 C   0  0  0  0  0  0  0  0  0  0  0  0
  -46.2452   59.5285   66.6753 C   0  0  0  0  0  0  0  0  0  0  0  0
  -47.3465   60.1929   65.8670 C   0  0  0  0  0  0  0  0  0  0  0  0
  -47.4243   59.6547   64.4557 C   0  0  0  0  0  0  0  0  0  0  0  0
  -48.3370   58.4577   64.2821 C   0  0  0  0  0  0  0  0  0  0  0  0
  -49.6326   58.5795   64.9883 C   0  0  0  0  0  0  0  0  0  0  0  0
  -50.7484   59.0644   64.4836 C   0  0  0  0  0  0  0  0  0  0  0  0
  -50.9702   59.5573   63.0906 C   0  0  0  0  0  0  0  0  0  0  0  0
  -51.0570   58.3767   62.1219 C   0  0  0  0  0  0  0  0  0  0  0  0
  -50.0768   58.4145   60.9586 C   0  0  0  0  0  0  0  0  0  0  0  0
  -49.4915   57.0636   60.5652 C   0  0  0  0  0  0  0  0  0  0  0  0
  -48.8830   57.0473   59.1668 C   0  0  0  0  0  0  0  0  0  0  0  0
  -47.7848   56.0109   58.9889 C   0  0  0  0  0  0  0  0  0  0  0  0
  -47.2601   55.8548   57.5696 C   0  0  0  0  0  0  0  0  0  0  0  0
  -47.3957   57.1080   56.7604 C   0  0  0  0  0  0  0  0  0  0  0  0
  -41.4433   58.3763   65.5362 O   0  0  0  0  0  0  0  0  0  0  0  0
  -40.9105   59.0111   64.3530 C   0  0  0  0  0  0  0  0  0  0  0  0
  -41.9751   59.7875   63.6074 C   0  0  0  0  0  0  0  0  0  0  0  0
  -41.6472   61.1822   63.5449 O   0  0  0  0  0  0  0  0  0  0  0  0
  -40.8255   61.2989   63.0429 H   0  0  0  0  0  0  0  0  0  0  0  0
  -42.2047   59.2619   62.2098 C   0  0  0  0  0  0  0  0  0  0  0  0
  -40.9608   58.9167   61.5534 O   0  0  0  0  0  0  0  0  0  0  0  0
  -40.3177   57.5087   61.1295 P   0  0  0  0  0  0  0  0  0  0  0  0
  -40.7163   57.2178   59.6835 O   0  0  0  0  0  0  0  0  0  0  0  0
  -40.8820   56.4502   61.9952 O   0  0  0  0  0  0  0  0  0  0  0  0
  -41.8489   56.4509   61.9184 H   0  0  0  0  0  0  0  0  0  0  0  0
  -38.6764   57.5419   61.2303 O   0  0  0  0  0  0  0  0  0  0  0  0
  -37.8869   57.1981   62.4015 C   0  0  0  0  0  0  0  0  0  0  0  0
  -37.0827   58.3907   62.8566 C   0  0  0  0  0  0  0  0  0  0  0  0
  -36.6242   58.3859   64.3031 N   0  0  0  0  0  0  0  0  0  0  0  0
  -36.2146   59.7597   64.7274 C   0  0  0  0  0  0  0  0  0  0  0  0
  -35.4520   57.4690   64.4293 C   0  0  0  0  0  0  0  0  0  0  0  0
  -37.7279   57.9091   65.2037 C   0  0  0  0  0  0  0  0  0  0  0  0
 34 33  1  0  0  0
 34 35  1  0  0  0
 34 36  1  0  0  0
 34 37  1  0  0  0
 22 23  1  0  0  0
 22 25  1  0  0  0
 22 21  1  0  0  0
 23 24  1  0  0  0
 27 26  1  0  0  0
 27 28  2  0  0  0
 27 31  1  0  0  0
 27 29  1  0  0  0
 25 26  1  0  0  0
 32 33  1  0  0  0
 32 31  1  0  0  0
 29 30  1  0  0  0
 20 21  1  0  0  0
 20  2  1  0  0  0
  1  2  2  0  0  0
  2  3  1  0  0  0
  3  4  1  0  0  0
  4  5  1  0  0  0
  5  6  1  0  0  0
  6  7  1  0  0  0
  7  8  1  0  0  0
  8  9  1  0  0  0
  9 10  1  0  0  0
 10 11  2  0  0  0
 11 12  1  0  0  0
 12 13  1  0  0  0
 13 14  1  0  0  0
 14 15  1  0  0  0
 15 16  1  0  0  0
 16 17  1  0  0  0
 17 18  1  0  0  0
 18 19  1  0  0  0
M  CHG 1  28  -1
M  END
> <minimizedAffinity>
-7.77195

> <CNNscore>
0.6173989773

> <CNNaffinity>
6.8087472916

> <CNN_VS>
4.2037134171

> <CNNaffinity_variance>
0.3613020182

$$$$
