/media/chris/experiments/cd1a-new-docking/inputs/ligands/4x6e_ligand.pdb


 37 36  0  0  0  0  0  0  0  0999 V2000
  -43.3631   57.3758   65.5186 O   0  0  0  0  0  0  0  0  0  0  0  0
  -43.5328   58.5466   65.2835 C   0  0  0  0  0  0  0  0  0  0  0  0
  -44.4463   59.4593   66.0425 C   0  0  0  0  0  0  0  0  0  0  0  0
  -45.9219   59.1432   65.8298 C   0  0  0  0  0  0  0  0  0  0  0  0
  -46.5389   58.2788   66.9158 C   0  0  0  0  0  0  0  0  0  0  0  0
  -47.4441   57.1853   66.3765 C   0  0  0  0  0  0  0  0  0  0  0  0
  -48.4041   57.6839   65.3100 C   0  0  0  0  0  0  0  0  0  0  0  0
  -49.7588   58.0395   65.8810 C   0  0  0  0  0  0  0  0  0  0  0  0
  -50.2341   59.4423   65.5612 C   0  0  0  0  0  0  0  0  0  0  0  0
  -49.3645   60.1719   64.6105 C   0  0  0  0  0  0  0  0  0  0  0  0
  -49.5392   60.2565   63.3078 C   0  0  0  0  0  0  0  0  0  0  0  0
  -50.6610   59.6788   62.5076 C   0  0  0  0  0  0  0  0  0  0  0  0
  -50.1933   59.3839   61.0815 C   0  0  0  0  0  0  0  0  0  0  0  0
  -50.3530   57.9400   60.6285 C   0  0  0  0  0  0  0  0  0  0  0  0
  -49.0962   57.0861   60.7431 C   0  0  0  0  0  0  0  0  0  0  0  0
  -48.6474   56.4813   59.4169 C   0  0  0  0  0  0  0  0  0  0  0  0
  -48.5707   57.4877   58.2798 C   0  0  0  0  0  0  0  0  0  0  0  0
  -47.7372   57.0559   57.0826 C   0  0  0  0  0  0  0  0  0  0  0  0
  -47.0687   55.7315   57.2892 C   0  0  0  0  0  0  0  0  0  0  0  0
  -42.9131   59.2140   64.3057 O   0  0  0  0  0  0  0  0  0  0  0  0
  -43.5309   59.2243   62.9999 C   0  0  0  0  0  0  0  0  0  0  0  0
  -43.1234   60.4424   62.1981 C   0  0  0  0  0  0  0  0  0  0  0  0
  -42.4770   61.4147   63.0306 O   0  0  0  0  0  0  0  0  0  0  0  0
  -41.6573   61.0398   63.3890 H   0  0  0  0  0  0  0  0  0  0  0  0
  -42.2222   60.0970   61.0358 C   0  0  0  0  0  0  0  0  0  0  0  0
  -41.5466   58.8317   61.2360 O   0  0  0  0  0  0  0  0  0  0  0  0
  -40.2888   58.4098   62.1392 P   0  0  0  0  0  0  0  0  0  0  0  0
  -40.6547   57.1386   62.9035 O   0  0  0  0  0  0  0  0  0  0  0  0
  -40.0253   59.4877   63.1177 O   0  0  0  0  0  0  0  0  0  0  0  0
  -40.8223   59.6452   63.6476 H   0  0  0  0  0  0  0  0  0  0  0  0
  -38.9597   58.1105   61.2179 O   0  0  0  0  0  0  0  0  0  0  0  0
  -37.5843   58.4069   61.5832 C   0  0  0  0  0  0  0  0  0  0  0  0
  -37.1390   57.5086   62.7105 C   0  0  0  0  0  0  0  0  0  0  0  0
  -36.6740   58.1962   63.9808 N   0  0  0  0  0  0  0  0  0  0  0  0
  -36.5660   59.6721   63.7680 C   0  0  0  0  0  0  0  0  0  0  0  0
  -35.3300   57.6594   64.3496 C   0  0  0  0  0  0  0  0  0  0  0  0
  -37.6384   57.9373   65.1029 C   0  0  0  0  0  0  0  0  0  0  0  0
 34 33  1  0  0  0
 34 35  1  0  0  0
 34 36  1  0  0  0
 34 37  1  0  0  0
 22 23  1  0  0  0
 22 25  1  0  0  0
 22 21  1  0  0  0
 23 24  1  0  0  0
 27 26  1  0  0  0
 27 28  2  0  0  0
 27 31  1  0  0  0
 27 29  1  0  0  0
 25 26  1  0  0  0
 32 33  1  0  0  0
 32 31  1  0  0  0
 29 30  1  0  0  0
 20 21  1  0  0  0
 20  2  1  0  0  0
  1  2  2  0  0  0
  2  3  1  0  0  0
  3  4  1  0  0  0
  4  5  1  0  0  0
  5  6  1  0  0  0
  6  7  1  0  0  0
  7  8  1  0  0  0
  8  9  1  0  0  0
  9 10  1  0  0  0
 10 11  2  0  0  0
 11 12  1  0  0  0
 12 13  1  0  0  0
 13 14  1  0  0  0
 14 15  1  0  0  0
 15 16  1  0  0  0
 16 17  1  0  0  0
 17 18  1  0  0  0
 18 19  1  0  0  0
M  CHG 1  28  -1
M  END
> <minimizedAffinity>
-7.50391

> <CNNscore>
0.7467728257

> <CNNaffinity>
6.9804077148

> <CNN_VS>
5.2127785683

> <CNNaffinity_variance>
0.3275360763

$$$$
/media/chris/experiments/cd1a-new-docking/inputs/ligands/4x6e_ligand.pdb


 37 36  0  0  0  0  0  0  0  0999 V2000
  -42.4563   56.4004   65.5048 O   0  0  0  0  0  0  0  0  0  0  0  0
  -42.8603   57.3822   66.0771 C   0  0  0  0  0  0  0  0  0  0  0  0
  -44.2317   57.5441   66.6574 C   0  0  0  0  0  0  0  0  0  0  0  0
  -45.3375   57.4744   65.6110 C   0  0  0  0  0  0  0  0  0  0  0  0
  -45.2591   58.5545   64.5458 C   0  0  0  0  0  0  0  0  0  0  0  0
  -46.3899   59.5651   64.6256 C   0  0  0  0  0  0  0  0  0  0  0  0
  -46.6861   60.0110   66.0472 C   0  0  0  0  0  0  0  0  0  0  0  0
  -48.1636   60.2351   66.2802 C   0  0  0  0  0  0  0  0  0  0  0  0
  -49.0501   59.0644   65.9064 C   0  0  0  0  0  0  0  0  0  0  0  0
  -50.4193   59.4512   65.4967 C   0  0  0  0  0  0  0  0  0  0  0  0
  -50.7894   59.8341   64.2920 C   0  0  0  0  0  0  0  0  0  0  0  0
  -49.9336   59.9252   63.0706 C   0  0  0  0  0  0  0  0  0  0  0  0
  -49.7449   58.5377   62.4552 C   0  0  0  0  0  0  0  0  0  0  0  0
  -50.9431   57.9955   61.6899 C   0  0  0  0  0  0  0  0  0  0  0  0
  -50.6245   57.4289   60.3116 C   0  0  0  0  0  0  0  0  0  0  0  0
  -49.1390   57.4619   59.9678 C   0  0  0  0  0  0  0  0  0  0  0  0
  -48.5485   56.0925   59.6717 C   0  0  0  0  0  0  0  0  0  0  0  0
  -47.6488   56.0220   58.4469 C   0  0  0  0  0  0  0  0  0  0  0  0
  -47.9400   57.1022   57.4509 C   0  0  0  0  0  0  0  0  0  0  0  0
  -42.1301   58.4805   66.2916 O   0  0  0  0  0  0  0  0  0  0  0  0
  -40.9286   58.6549   65.5088 C   0  0  0  0  0  0  0  0  0  0  0  0
  -40.4628   60.0955   65.5126 C   0  0  0  0  0  0  0  0  0  0  0  0
  -41.2596   60.8925   66.3993 O   0  0  0  0  0  0  0  0  0  0  0  0
  -41.1522   60.5707   67.3081 H   0  0  0  0  0  0  0  0  0  0  0  0
  -39.0053   60.2330   65.8858 C   0  0  0  0  0  0  0  0  0  0  0  0
  -38.3884   61.3708   65.2359 O   0  0  0  0  0  0  0  0  0  0  0  0
  -37.8104   61.5860   63.7542 P   0  0  0  0  0  0  0  0  0  0  0  0
  -36.5356   60.7558   63.6137 O   0  0  0  0  0  0  0  0  0  0  0  0
  -37.4630   63.0139   63.5839 O   0  0  0  0  0  0  0  0  0  0  0  0
  -36.8276   63.2759   64.2683 H   0  0  0  0  0  0  0  0  0  0  0  0
  -38.8883   61.0999   62.6111 O   0  0  0  0  0  0  0  0  0  0  0  0
  -38.7787   59.9068   61.7880 C   0  0  0  0  0  0  0  0  0  0  0  0
  -39.8133   58.8902   62.2031 C   0  0  0  0  0  0  0  0  0  0  0  0
  -40.4112   58.0420   61.0959 N   0  0  0  0  0  0  0  0  0  0  0  0
  -39.4308   57.8701   59.9803 C   0  0  0  0  0  0  0  0  0  0  0  0
  -41.6279   58.7307   60.5710 C   0  0  0  0  0  0  0  0  0  0  0  0
  -40.7930   56.6866   61.6189 C   0  0  0  0  0  0  0  0  0  0  0  0
 34 33  1  0  0  0
 34 35  1  0  0  0
 34 36  1  0  0  0
 34 37  1  0  0  0
 22 23  1  0  0  0
 22 25  1  0  0  0
 22 21  1  0  0  0
 23 24  1  0  0  0
 27 26  1  0  0  0
 27 28  2  0  0  0
 27 31  1  0  0  0
 27 29  1  0  0  0
 25 26  1  0  0  0
 32 33  1  0  0  0
 32 31  1  0  0  0
 29 30  1  0  0  0
 20 21  1  0  0  0
 20  2  1  0  0  0
  1  2  2  0  0  0
  2  3  1  0  0  0
  3  4  1  0  0  0
  4  5  1  0  0  0
  5  6  1  0  0  0
  6  7  1  0  0  0
  7  8  1  0  0  0
  8  9  1  0  0  0
  9 10  1  0  0  0
 10 11  2  0  0  0
 11 12  1  0  0  0
 12 13  1  0  0  0
 13 14  1  0  0  0
 14 15  1  0  0  0
 15 16  1  0  0  0
 16 17  1  0  0  0
 17 18  1  0  0  0
 18 19  1  0  0  0
M  CHG 1  28  -1
M  END
> <minimizedAffinity>
-7.97335

> <CNNscore>
0.7423126101

> <CNNaffinity>
6.9978628159

> <CNN_VS>
5.1946020126

> <CNNaffinity_variance>
0.2420698404

$$$$
/media/chris/experiments/cd1a-new-docking/inputs/ligands/4x6e_ligand.pdb


 37 36  0  0  0  0  0  0  0  0999 V2000
  -41.8151   61.0573   65.0683 O   0  0  0  0  0  0  0  0  0  0  0  0
  -41.3562   60.2284   65.8147 C   0  0  0  0  0  0  0  0  0  0  0  0
  -42.0864   59.5919   66.9572 C   0  0  0  0  0  0  0  0  0  0  0  0
  -43.5038   59.1624   66.5978 C   0  0  0  0  0  0  0  0  0  0  0  0
  -43.5866   57.8407   65.8535 C   0  0  0  0  0  0  0  0  0  0  0  0
  -44.9843   57.2474   65.8292 C   0  0  0  0  0  0  0  0  0  0  0  0
  -46.0723   58.2865   66.0394 C   0  0  0  0  0  0  0  0  0  0  0  0
  -47.4391   57.6592   66.2001 C   0  0  0  0  0  0  0  0  0  0  0  0
  -48.3941   57.9151   65.0518 C   0  0  0  0  0  0  0  0  0  0  0  0
  -49.4636   58.8907   65.3627 C   0  0  0  0  0  0  0  0  0  0  0  0
  -50.4621   59.2253   64.5717 C   0  0  0  0  0  0  0  0  0  0  0  0
  -50.7633   58.6752   63.2156 C   0  0  0  0  0  0  0  0  0  0  0  0
  -50.2056   59.6030   62.1350 C   0  0  0  0  0  0  0  0  0  0  0  0
  -50.0821   58.9887   60.7484 C   0  0  0  0  0  0  0  0  0  0  0  0
  -50.5520   57.5431   60.6400 C   0  0  0  0  0  0  0  0  0  0  0  0
  -49.4570   56.5782   60.1973 C   0  0  0  0  0  0  0  0  0  0  0  0
  -48.4934   57.1702   59.1811 C   0  0  0  0  0  0  0  0  0  0  0  0
  -48.0431   56.2212   58.0805 C   0  0  0  0  0  0  0  0  0  0  0  0
  -47.6038   56.9382   56.8409 C   0  0  0  0  0  0  0  0  0  0  0  0
  -40.1158   59.7400   65.7234 O   0  0  0  0  0  0  0  0  0  0  0  0
  -39.9484   58.4301   65.1376 C   0  0  0  0  0  0  0  0  0  0  0  0
  -38.5823   58.2710   64.5045 C   0  0  0  0  0  0  0  0  0  0  0  0
  -37.7498   57.4037   65.2861 O   0  0  0  0  0  0  0  0  0  0  0  0
  -38.1413   56.5165   65.3118 H   0  0  0  0  0  0  0  0  0  0  0  0
  -38.6565   57.7537   63.0870 C   0  0  0  0  0  0  0  0  0  0  0  0
  -39.3941   58.6527   62.2239 O   0  0  0  0  0  0  0  0  0  0  0  0
  -38.9231   59.7371   61.1385 P   0  0  0  0  0  0  0  0  0  0  0  0
  -40.1680   60.2997   60.4543 O   0  0  0  0  0  0  0  0  0  0  0  0
  -38.0927   59.0581   60.1198 O   0  0  0  0  0  0  0  0  0  0  0  0
  -38.5991   58.3337   59.7202 H   0  0  0  0  0  0  0  0  0  0  0  0
  -38.1000   60.9749   61.8423 O   0  0  0  0  0  0  0  0  0  0  0  0
  -38.3358   61.5079   63.1739 C   0  0  0  0  0  0  0  0  0  0  0  0
  -37.1839   62.3862   63.5956 C   0  0  0  0  0  0  0  0  0  0  0  0
  -36.2363   61.8091   64.6308 N   0  0  0  0  0  0  0  0  0  0  0  0
  -35.1005   62.7483   64.8824 C   0  0  0  0  0  0  0  0  0  0  0  0
  -35.6928   60.5179   64.1133 C   0  0  0  0  0  0  0  0  0  0  0  0
  -36.9574   61.5625   65.9252 C   0  0  0  0  0  0  0  0  0  0  0  0
 34 33  1  0  0  0
 34 35  1  0  0  0
 34 36  1  0  0  0
 34 37  1  0  0  0
 22 23  1  0  0  0
 22 25  1  0  0  0
 22 21  1  0  0  0
 23 24  1  0  0  0
 27 26  1  0  0  0
 27 28  2  0  0  0
 27 31  1  0  0  0
 27 29  1  0  0  0
 25 26  1  0  0  0
 32 33  1  0  0  0
 32 31  1  0  0  0
 29 30  1  0  0  0
 20 21  1  0  0  0
 20  2  1  0  0  0
  1  2  2  0  0  0
  2  3  1  0  0  0
  3  4  1  0  0  0
  4  5  1  0  0  0
  5  6  1  0  0  0
  6  7  1  0  0  0
  7  8  1  0  0  0
  8  9  1  0  0  0
  9 10  1  0  0  0
 10 11  2  0  0  0
 11 12  1  0  0  0
 12 13  1  0  0  0
 13 14  1  0  0  0
 14 15  1  0  0  0
 15 16  1  0  0  0
 16 17  1  0  0  0
 17 18  1  0  0  0
 18 19  1  0  0  0
M  CHG 1  28  -1
M  END
> <minimizedAffinity>
-7.74917

> <CNNscore>
0.6437556148

> <CNNaffinity>
6.8985300064

> <CNN_VS>
4.4409675598

> <CNNaffinity_variance>
0.5059016347

$$$$
/media/chris/experiments/cd1a-new-docking/inputs/ligands/4x6e_ligand.pdb


 37 36  0  0  0  0  0  0  0  0999 V2000
  -43.0394   57.9949   65.4685 O   0  0  0  0  0  0  0  0  0  0  0  0
  -43.6886   58.9753   65.7372 C   0  0  0  0  0  0  0  0  0  0  0  0
  -44.6087   59.1102   66.9115 C   0  0  0  0  0  0  0  0  0  0  0  0
  -46.0441   58.7053   66.5980 C   0  0  0  0  0  0  0  0  0  0  0  0
  -46.3326   57.2264   66.7904 C   0  0  0  0  0  0  0  0  0  0  0  0
  -47.6536   56.7846   66.1854 C   0  0  0  0  0  0  0  0  0  0  0  0
  -48.3298   57.8787   65.3772 C   0  0  0  0  0  0  0  0  0  0  0  0
  -49.7789   58.0659   65.7680 C   0  0  0  0  0  0  0  0  0  0  0  0
  -50.3280   59.4567   65.5229 C   0  0  0  0  0  0  0  0  0  0  0  0
  -49.5816   60.2289   64.5036 C   0  0  0  0  0  0  0  0  0  0  0  0
  -49.8082   60.2227   63.2062 C   0  0  0  0  0  0  0  0  0  0  0  0
  -50.8810   59.4779   62.4804 C   0  0  0  0  0  0  0  0  0  0  0  0
  -50.4052   59.1052   61.0754 C   0  0  0  0  0  0  0  0  0  0  0  0
  -50.4689   57.6229   60.7373 C   0  0  0  0  0  0  0  0  0  0  0  0
  -49.1486   56.8742   60.8715 C   0  0  0  0  0  0  0  0  0  0  0  0
  -48.5977   56.3673   59.5427 C   0  0  0  0  0  0  0  0  0  0  0  0
  -48.7054   57.3763   58.4104 C   0  0  0  0  0  0  0  0  0  0  0  0
  -47.7463   57.1581   57.2499 C   0  0  0  0  0  0  0  0  0  0  0  0
  -47.2708   55.7412   57.1494 C   0  0  0  0  0  0  0  0  0  0  0  0
  -43.6730   60.1053   65.0243 O   0  0  0  0  0  0  0  0  0  0  0  0
  -43.2407   60.0283   63.6480 C   0  0  0  0  0  0  0  0  0  0  0  0
  -42.1340   61.0187   63.3532 C   0  0  0  0  0  0  0  0  0  0  0  0
  -41.1804   61.0595   64.4233 O   0  0  0  0  0  0  0  0  0  0  0  0
  -40.7527   60.1930   64.5086 H   0  0  0  0  0  0  0  0  0  0  0  0
  -41.4206   60.7220   62.0550 C   0  0  0  0  0  0  0  0  0  0  0  0
  -40.5165   59.5978   62.1825 O   0  0  0  0  0  0  0  0  0  0  0  0
  -38.9245   59.4686   62.0255 P   0  0  0  0  0  0  0  0  0  0  0  0
  -38.6288   58.8263   60.6712 O   0  0  0  0  0  0  0  0  0  0  0  0
  -38.4142   58.5774   63.0904 O   0  0  0  0  0  0  0  0  0  0  0  0
  -38.8603   57.7180   63.0340 H   0  0  0  0  0  0  0  0  0  0  0  0
  -38.1924   60.9401   62.0855 O   0  0  0  0  0  0  0  0  0  0  0  0
  -37.9128   61.7052   63.2894 C   0  0  0  0  0  0  0  0  0  0  0  0
  -36.6471   61.2067   63.9418 C   0  0  0  0  0  0  0  0  0  0  0  0
  -36.2818   61.8312   65.2757 N   0  0  0  0  0  0  0  0  0  0  0  0
  -34.8493   61.5591   65.6066 C   0  0  0  0  0  0  0  0  0  0  0  0
  -37.1470   61.2329   66.3358 C   0  0  0  0  0  0  0  0  0  0  0  0
  -36.4968   63.3173   65.2378 C   0  0  0  0  0  0  0  0  0  0  0  0
 34 33  1  0  0  0
 34 35  1  0  0  0
 34 36  1  0  0  0
 34 37  1  0  0  0
 22 23  1  0  0  0
 22 25  1  0  0  0
 22 21  1  0  0  0
 23 24  1  0  0  0
 27 26  1  0  0  0
 27 28  2  0  0  0
 27 31  1  0  0  0
 27 29  1  0  0  0
 25 26  1  0  0  0
 32 33  1  0  0  0
 32 31  1  0  0  0
 29 30  1  0  0  0
 20 21  1  0  0  0
 20  2  1  0  0  0
  1  2  2  0  0  0
  2  3  1  0  0  0
  3  4  1  0  0  0
  4  5  1  0  0  0
  5  6  1  0  0  0
  6  7  1  0  0  0
  7  8  1  0  0  0
  8  9  1  0  0  0
  9 10  1  0  0  0
 10 11  2  0  0  0
 11 12  1  0  0  0
 12 13  1  0  0  0
 13 14  1  0  0  0
 14 15  1  0  0  0
 15 16  1  0  0  0
 16 17  1  0  0  0
 17 18  1  0  0  0
 18 19  1  0  0  0
M  CHG 1  28  -1
M  END
> <minimizedAffinity>
-7.78061

> <CNNscore>
0.6342218518

> <CNNaffinity>
6.6123533249

> <CNN_VS>
4.1936988831

> <CNNaffinity_variance>
0.1626749784

$$$$
/media/chris/experiments/cd1a-new-docking/inputs/ligands/4x6e_ligand.pdb


 37 36  0  0  0  0  0  0  0  0999 V2000
  -42.1762   57.5475   61.4666 O   0  0  0  0  0  0  0  0  0  0  0  0
  -41.3785   58.0141   62.2415 C   0  0  0  0  0  0  0  0  0  0  0  0
  -41.0838   57.4789   63.6091 C   0  0  0  0  0  0  0  0  0  0  0  0
  -41.9025   56.2416   63.9578 C   0  0  0  0  0  0  0  0  0  0  0  0
  -42.7447   56.3830   65.2141 C   0  0  0  0  0  0  0  0  0  0  0  0
  -42.8992   57.8203   65.6795 C   0  0  0  0  0  0  0  0  0  0  0  0
  -44.2251   58.0782   66.3744 C   0  0  0  0  0  0  0  0  0  0  0  0
  -45.4043   57.8812   65.4478 C   0  0  0  0  0  0  0  0  0  0  0  0
  -45.3740   58.7294   64.1926 C   0  0  0  0  0  0  0  0  0  0  0  0
  -45.8679   60.1117   64.3866 C   0  0  0  0  0  0  0  0  0  0  0  0
  -47.1220   60.4683   64.5730 C   0  0  0  0  0  0  0  0  0  0  0  0
  -48.3115   59.5694   64.6710 C   0  0  0  0  0  0  0  0  0  0  0  0
  -48.9661   59.4103   63.2978 C   0  0  0  0  0  0  0  0  0  0  0  0
  -50.2408   58.5798   63.2755 C   0  0  0  0  0  0  0  0  0  0  0  0
  -50.8886   58.4306   61.9043 C   0  0  0  0  0  0  0  0  0  0  0  0
  -49.9339   58.7034   60.7466 C   0  0  0  0  0  0  0  0  0  0  0  0
  -50.2175   57.8669   59.5090 C   0  0  0  0  0  0  0  0  0  0  0  0
  -48.9888   57.3945   58.7464 C   0  0  0  0  0  0  0  0  0  0  0  0
  -48.2692   56.2790   59.4404 C   0  0  0  0  0  0  0  0  0  0  0  0
  -40.6206   59.0846   61.9860 O   0  0  0  0  0  0  0  0  0  0  0  0
  -39.9192   59.1283   60.7239 C   0  0  0  0  0  0  0  0  0  0  0  0
  -38.6121   58.3664   60.7839 C   0  0  0  0  0  0  0  0  0  0  0  0
  -37.8606   58.5362   59.5745 O   0  0  0  0  0  0  0  0  0  0  0  0
  -37.6245   59.4711   59.4690 H   0  0  0  0  0  0  0  0  0  0  0  0
  -37.7604   58.7677   61.9655 C   0  0  0  0  0  0  0  0  0  0  0  0
  -37.6575   60.2068   62.0907 O   0  0  0  0  0  0  0  0  0  0  0  0
  -37.8004   61.1947   63.3474 P   0  0  0  0  0  0  0  0  0  0  0  0
  -36.8982   60.6773   64.4666 O   0  0  0  0  0  0  0  0  0  0  0  0
  -39.2020   61.1612   63.8195 O   0  0  0  0  0  0  0  0  0  0  0  0
  -39.4474   60.2488   64.0391 H   0  0  0  0  0  0  0  0  0  0  0  0
  -37.3430   62.7272   62.9635 O   0  0  0  0  0  0  0  0  0  0  0  0
  -36.6357   63.6500   63.8359 C   0  0  0  0  0  0  0  0  0  0  0  0
  -35.2602   63.9366   63.2864 C   0  0  0  0  0  0  0  0  0  0  0  0
  -34.0870   63.5928   64.1853 N   0  0  0  0  0  0  0  0  0  0  0  0
  -33.2438   62.5272   63.5615 C   0  0  0  0  0  0  0  0  0  0  0  0
  -34.6153   63.0923   65.4894 C   0  0  0  0  0  0  0  0  0  0  0  0
  -33.2350   64.8062   64.4262 C   0  0  0  0  0  0  0  0  0  0  0  0
 34 33  1  0  0  0
 34 35  1  0  0  0
 34 36  1  0  0  0
 34 37  1  0  0  0
 22 23  1  0  0  0
 22 25  1  0  0  0
 22 21  1  0  0  0
 23 24  1  0  0  0
 27 26  1  0  0  0
 27 28  2  0  0  0
 27 31  1  0  0  0
 27 29  1  0  0  0
 25 26  1  0  0  0
 32 33  1  0  0  0
 32 31  1  0  0  0
 29 30  1  0  0  0
 20 21  1  0  0  0
 20  2  1  0  0  0
  1  2  2  0  0  0
  2  3  1  0  0  0
  3  4  1  0  0  0
  4  5  1  0  0  0
  5  6  1  0  0  0
  6  7  1  0  0  0
  7  8  1  0  0  0
  8  9  1  0  0  0
  9 10  1  0  0  0
 10 11  2  0  0  0
 11 12  1  0  0  0
 12 13  1  0  0  0
 13 14  1  0  0  0
 14 15  1  0  0  0
 15 16  1  0  0  0
 16 17  1  0  0  0
 17 18  1  0  0  0
 18 19  1  0  0  0
M  CHG 1  28  -1
M  END
> <minimizedAffinity>
-7.38099

> <CNNscore>
0.6073975563

> <CNNaffinity>
6.4928550720

> <CNN_VS>
3.9437444210

> <CNNaffinity_variance>
0.2611888051

$$$$
/media/chris/experiments/cd1a-new-docking/inputs/ligands/4x6e_ligand.pdb


 37 36  0  0  0  0  0  0  0  0999 V2000
  -41.0242   58.2612   64.2807 O   0  0  0  0  0  0  0  0  0  0  0  0
  -41.5664   58.3556   63.2075 C   0  0  0  0  0  0  0  0  0  0  0  0
  -42.9844   57.9709   62.9162 C   0  0  0  0  0  0  0  0  0  0  0  0
  -43.9932   59.0288   63.3472 C   0  0  0  0  0  0  0  0  0  0  0  0
  -45.1306   58.4964   64.2020 C   0  0  0  0  0  0  0  0  0  0  0  0
  -46.2621   59.4916   64.3903 C   0  0  0  0  0  0  0  0  0  0  0  0
  -46.4641   59.8906   65.8420 C   0  0  0  0  0  0  0  0  0  0  0  0
  -47.9272   59.9501   66.2205 C   0  0  0  0  0  0  0  0  0  0  0  0
  -48.8521   60.4074   65.1108 C   0  0  0  0  0  0  0  0  0  0  0  0
  -50.0807   59.5924   64.9753 C   0  0  0  0  0  0  0  0  0  0  0  0
  -50.3348   58.7257   64.0166 C   0  0  0  0  0  0  0  0  0  0  0  0
  -49.4374   58.3416   62.8854 C   0  0  0  0  0  0  0  0  0  0  0  0
  -50.0092   58.8534   61.5623 C   0  0  0  0  0  0  0  0  0  0  0  0
  -50.7426   57.8164   60.7244 C   0  0  0  0  0  0  0  0  0  0  0  0
  -49.8849   56.6515   60.2454 C   0  0  0  0  0  0  0  0  0  0  0  0
  -48.7909   57.0630   59.2655 C   0  0  0  0  0  0  0  0  0  0  0  0
  -47.7134   56.0079   59.0724 C   0  0  0  0  0  0  0  0  0  0  0  0
  -47.2254   55.8292   57.6425 C   0  0  0  0  0  0  0  0  0  0  0  0
  -47.3305   57.0851   56.8330 C   0  0  0  0  0  0  0  0  0  0  0  0
  -40.9778   58.8356   62.1081 O   0  0  0  0  0  0  0  0  0  0  0  0
  -40.0749   57.9646   61.3918 C   0  0  0  0  0  0  0  0  0  0  0  0
  -38.7798   58.6670   61.0425 C   0  0  0  0  0  0  0  0  0  0  0  0
  -38.3059   58.2620   59.7512 O   0  0  0  0  0  0  0  0  0  0  0  0
  -38.9482   58.5256   59.0737 H   0  0  0  0  0  0  0  0  0  0  0  0
  -38.9070   60.1719   61.0821 C   0  0  0  0  0  0  0  0  0  0  0  0
  -38.0985   60.7528   62.1338 O   0  0  0  0  0  0  0  0  0  0  0  0
  -38.3092   60.8660   63.7209 P   0  0  0  0  0  0  0  0  0  0  0  0
  -37.8780   59.5447   64.3552 O   0  0  0  0  0  0  0  0  0  0  0  0
  -39.7485   61.0716   63.9943 O   0  0  0  0  0  0  0  0  0  0  0  0
  -40.2585   60.3433   63.6065 H   0  0  0  0  0  0  0  0  0  0  0  0
  -37.4065   62.0817   64.3627 O   0  0  0  0  0  0  0  0  0  0  0  0
  -35.9544   62.1464   64.3834 C   0  0  0  0  0  0  0  0  0  0  0  0
  -35.4977   63.5817   64.4702 C   0  0  0  0  0  0  0  0  0  0  0  0
  -34.0568   63.8094   64.8883 N   0  0  0  0  0  0  0  0  0  0  0  0
  -33.8695   63.4656   66.3312 C   0  0  0  0  0  0  0  0  0  0  0  0
  -33.7230   65.2509   64.6854 C   0  0  0  0  0  0  0  0  0  0  0  0
  -33.1293   62.9630   64.0638 C   0  0  0  0  0  0  0  0  0  0  0  0
 34 33  1  0  0  0
 34 35  1  0  0  0
 34 36  1  0  0  0
 34 37  1  0  0  0
 22 23  1  0  0  0
 22 25  1  0  0  0
 22 21  1  0  0  0
 23 24  1  0  0  0
 27 26  1  0  0  0
 27 28  2  0  0  0
 27 31  1  0  0  0
 27 29  1  0  0  0
 25 26  1  0  0  0
 32 33  1  0  0  0
 32 31  1  0  0  0
 29 30  1  0  0  0
 20 21  1  0  0  0
 20  2  1  0  0  0
  1  2  2  0  0  0
  2  3  1  0  0  0
  3  4  1  0  0  0
  4  5  1  0  0  0
  5  6  1  0  0  0
  6  7  1  0  0  0
  7  8  1  0  0  0
  8  9  1  0  0  0
  9 10  1  0  0  0
 10 11  2  0  0  0
 11 12  1  0  0  0
 12 13  1  0  0  0
 13 14  1  0  0  0
 14 15  1  0  0  0
 15 16  1  0  0  0
 16 17  1  0  0  0
 17 18  1  0  0  0
 18 19  1  0  0  0
M  CHG 1  28  -1
M  END
> <minimizedAffinity>
-7.75364

> <CNNscore>
0.5921700597

> <CNNaffinity>
6.4064521790

> <CNN_VS>
3.7937092781

> <CNNaffinity_variance>
0.3352123499

$$$$
/media/chris/experiments/cd1a-new-docking/inputs/ligands/4x6e_ligand.pdb


 37 36  0  0  0  0  0  0  0  0999 V2000
  -40.3093   59.1543   65.9048 O   0  0  0  0  0  0  0  0  0  0  0  0
  -40.9973   59.8743   65.2244 C   0  0  0  0  0  0  0  0  0  0  0  0
  -42.4944   59.8537   65.1805 C   0  0  0  0  0  0  0  0  0  0  0  0
  -43.1341   59.8102   66.5630 C   0  0  0  0  0  0  0  0  0  0  0  0
  -44.1396   58.6873   66.7514 C   0  0  0  0  0  0  0  0  0  0  0  0
  -45.3316   58.7799   65.8151 C   0  0  0  0  0  0  0  0  0  0  0  0
  -46.6529   58.9216   66.5510 C   0  0  0  0  0  0  0  0  0  0  0  0
  -47.6571   57.8716   66.1309 C   0  0  0  0  0  0  0  0  0  0  0  0
  -48.4065   58.1855   64.8519 C   0  0  0  0  0  0  0  0  0  0  0  0
  -49.8254   58.5543   65.0591 C   0  0  0  0  0  0  0  0  0  0  0  0
  -50.6216   59.1060   64.1667 C   0  0  0  0  0  0  0  0  0  0  0  0
  -50.2926   59.4435   62.7489 C   0  0  0  0  0  0  0  0  0  0  0  0
  -50.9301   58.4241   61.8033 C   0  0  0  0  0  0  0  0  0  0  0  0
  -50.0888   58.0409   60.5947 C   0  0  0  0  0  0  0  0  0  0  0  0
  -49.4644   56.6524   60.6584 C   0  0  0  0  0  0  0  0  0  0  0  0
  -48.4946   56.3674   59.5164 C   0  0  0  0  0  0  0  0  0  0  0  0
  -48.5863   57.3643   58.3720 C   0  0  0  0  0  0  0  0  0  0  0  0
  -48.0694   56.8659   57.0308 C   0  0  0  0  0  0  0  0  0  0  0  0
  -46.9905   55.8364   57.1717 C   0  0  0  0  0  0  0  0  0  0  0  0
  -40.5193   60.8178   64.4078 O   0  0  0  0  0  0  0  0  0  0  0  0
  -39.8952   60.3910   63.1768 C   0  0  0  0  0  0  0  0  0  0  0  0
  -38.4381   60.7983   63.1180 C   0  0  0  0  0  0  0  0  0  0  0  0
  -38.2272   62.0546   63.7763 O   0  0  0  0  0  0  0  0  0  0  0  0
  -38.4463   61.9675   64.7173 H   0  0  0  0  0  0  0  0  0  0  0  0
  -37.5203   59.7575   63.7153 C   0  0  0  0  0  0  0  0  0  0  0  0
  -36.1436   59.9598   63.3138 O   0  0  0  0  0  0  0  0  0  0  0  0
  -34.7719   60.0099   64.1456 P   0  0  0  0  0  0  0  0  0  0  0  0
  -33.6265   60.2497   63.1635 O   0  0  0  0  0  0  0  0  0  0  0  0
  -34.5654   58.6984   64.7981 O   0  0  0  0  0  0  0  0  0  0  0  0
  -34.5624   57.9995   64.1255 H   0  0  0  0  0  0  0  0  0  0  0  0
  -34.7838   61.2255   65.2533 O   0  0  0  0  0  0  0  0  0  0  0  0
  -35.3476   62.5511   65.0589 C   0  0  0  0  0  0  0  0  0  0  0  0
  -34.5474   63.3125   64.0314 C   0  0  0  0  0  0  0  0  0  0  0  0
  -33.3896   64.1426   64.5542 N   0  0  0  0  0  0  0  0  0  0  0  0
  -32.0898   63.4514   64.2933 C   0  0  0  0  0  0  0  0  0  0  0  0
  -33.5573   64.3213   66.0274 C   0  0  0  0  0  0  0  0  0  0  0  0
  -33.3647   65.4892   63.8891 C   0  0  0  0  0  0  0  0  0  0  0  0
 34 33  1  0  0  0
 34 35  1  0  0  0
 34 36  1  0  0  0
 34 37  1  0  0  0
 22 23  1  0  0  0
 22 25  1  0  0  0
 22 21  1  0  0  0
 23 24  1  0  0  0
 27 26  1  0  0  0
 27 28  2  0  0  0
 27 31  1  0  0  0
 27 29  1  0  0  0
 25 26  1  0  0  0
 32 33  1  0  0  0
 32 31  1  0  0  0
 29 30  1  0  0  0
 20 21  1  0  0  0
 20  2  1  0  0  0
  1  2  2  0  0  0
  2  3  1  0  0  0
  3  4  1  0  0  0
  4  5  1  0  0  0
  5  6  1  0  0  0
  6  7  1  0  0  0
  7  8  1  0  0  0
  8  9  1  0  0  0
  9 10  1  0  0  0
 10 11  2  0  0  0
 11 12  1  0  0  0
 12 13  1  0  0  0
 13 14  1  0  0  0
 14 15  1  0  0  0
 15 16  1  0  0  0
 16 17  1  0  0  0
 17 18  1  0  0  0
 18 19  1  0  0  0
M  CHG 1  28  -1
M  END
> <minimizedAffinity>
-7.76221

> <CNNscore>
0.5889739394

> <CNNaffinity>
6.2699561119

> <CNN_VS>
3.6928408146

> <CNNaffinity_variance>
0.5567764640

$$$$
/media/chris/experiments/cd1a-new-docking/inputs/ligands/4x6e_ligand.pdb


 37 36  0  0  0  0  0  0  0  0999 V2000
  -40.8051   57.2232   63.7138 O   0  0  0  0  0  0  0  0  0  0  0  0
  -41.4573   58.2318   63.8236 C   0  0  0  0  0  0  0  0  0  0  0  0
  -42.8934   58.3826   63.4255 C   0  0  0  0  0  0  0  0  0  0  0  0
  -43.5798   59.5671   64.0952 C   0  0  0  0  0  0  0  0  0  0  0  0
  -45.0948   59.4673   64.1414 C   0  0  0  0  0  0  0  0  0  0  0  0
  -45.6835   59.8308   65.4933 C   0  0  0  0  0  0  0  0  0  0  0  0
  -46.7702   58.8697   65.9436 C   0  0  0  0  0  0  0  0  0  0  0  0
  -47.7798   58.5955   64.8513 C   0  0  0  0  0  0  0  0  0  0  0  0
  -48.9249   59.5853   64.7822 C   0  0  0  0  0  0  0  0  0  0  0  0
  -48.9887   60.3464   63.5137 C   0  0  0  0  0  0  0  0  0  0  0  0
  -49.9327   60.2535   62.6000 C   0  0  0  0  0  0  0  0  0  0  0  0
  -51.1591   59.4016   62.6519 C   0  0  0  0  0  0  0  0  0  0  0  0
  -50.8688   58.0237   62.0548 C   0  0  0  0  0  0  0  0  0  0  0  0
  -49.7034   57.9688   61.0780 C   0  0  0  0  0  0  0  0  0  0  0  0
  -50.0963   57.9685   59.6057 C   0  0  0  0  0  0  0  0  0  0  0  0
  -49.0408   57.3522   58.6935 C   0  0  0  0  0  0  0  0  0  0  0  0
  -48.2678   56.2110   59.3352 C   0  0  0  0  0  0  0  0  0  0  0  0
  -47.0151   55.7730   58.5912 C   0  0  0  0  0  0  0  0  0  0  0  0
  -47.0227   56.1847   57.1510 C   0  0  0  0  0  0  0  0  0  0  0  0
  -40.9921   59.3753   64.3349 O   0  0  0  0  0  0  0  0  0  0  0  0
  -40.4402   59.3418   65.6695 C   0  0  0  0  0  0  0  0  0  0  0  0
  -38.9289   59.4320   65.6521 C   0  0  0  0  0  0  0  0  0  0  0  0
  -38.3450   58.2093   65.1826 O   0  0  0  0  0  0  0  0  0  0  0  0
  -38.6175   58.0523   64.2649 H   0  0  0  0  0  0  0  0  0  0  0  0
  -38.4261   60.5837   64.8136 C   0  0  0  0  0  0  0  0  0  0  0  0
  -37.9191   61.6649   65.6329 O   0  0  0  0  0  0  0  0  0  0  0  0
  -36.6591   62.6454   65.4689 P   0  0  0  0  0  0  0  0  0  0  0  0
  -36.9145   63.8957   66.3088 O   0  0  0  0  0  0  0  0  0  0  0  0
  -36.5522   63.0462   64.0489 O   0  0  0  0  0  0  0  0  0  0  0  0
  -37.3816   63.4629   63.7673 H   0  0  0  0  0  0  0  0  0  0  0  0
  -35.2705   61.9328   65.9877 O   0  0  0  0  0  0  0  0  0  0  0  0
  -34.0846   62.6238   66.4665 C   0  0  0  0  0  0  0  0  0  0  0  0
  -33.3036   63.1855   65.3043 C   0  0  0  0  0  0  0  0  0  0  0  0
  -32.9357   64.6556   65.3833 N   0  0  0  0  0  0  0  0  0  0  0  0
  -33.4034   65.3789   64.1612 C   0  0  0  0  0  0  0  0  0  0  0  0
  -31.4497   64.7715   65.4771 C   0  0  0  0  0  0  0  0  0  0  0  0
  -33.5617   65.2907   66.5920 C   0  0  0  0  0  0  0  0  0  0  0  0
 34 33  1  0  0  0
 34 35  1  0  0  0
 34 36  1  0  0  0
 34 37  1  0  0  0
 22 23  1  0  0  0
 22 25  1  0  0  0
 22 21  1  0  0  0
 23 24  1  0  0  0
 27 26  1  0  0  0
 27 28  2  0  0  0
 27 31  1  0  0  0
 27 29  1  0  0  0
 25 26  1  0  0  0
 32 33  1  0  0  0
 32 31  1  0  0  0
 29 30  1  0  0  0
 20 21  1  0  0  0
 20  2  1  0  0  0
  1  2  2  0  0  0
  2  3  1  0  0  0
  3  4  1  0  0  0
  4  5  1  0  0  0
  5  6  1  0  0  0
  6  7  1  0  0  0
  7  8  1  0  0  0
  8  9  1  0  0  0
  9 10  1  0  0  0
 10 11  2  0  0  0
 11 12  1  0  0  0
 12 13  1  0  0  0
 13 14  1  0  0  0
 14 15  1  0  0  0
 15 16  1  0  0  0
 16 17  1  0  0  0
 17 18  1  0  0  0
 18 19  1  0  0  0
M  CHG 1  28  -1
M  END
> <minimizedAffinity>
-7.99373

> <CNNscore>
0.5885876417

> <CNNaffinity>
6.1852750778

> <CNN_VS>
3.6405763626

> <CNNaffinity_variance>
0.3298153579

$$$$
/media/chris/experiments/cd1a-new-docking/inputs/ligands/4x6e_ligand.pdb


 37 36  0  0  0  0  0  0  0  0999 V2000
  -38.3363   59.0274   65.9585 O   0  0  0  0  0  0  0  0  0  0  0  0
  -38.8456   60.1015   65.7544 C   0  0  0  0  0  0  0  0  0  0  0  0
  -40.2556   60.3192   65.2981 C   0  0  0  0  0  0  0  0  0  0  0  0
  -41.2436   59.3359   65.9140 C   0  0  0  0  0  0  0  0  0  0  0  0
  -42.3228   59.9840   66.7642 C   0  0  0  0  0  0  0  0  0  0  0  0
  -43.5798   59.1413   66.8910 C   0  0  0  0  0  0  0  0  0  0  0  0
  -43.4353   57.7649   66.2646 C   0  0  0  0  0  0  0  0  0  0  0  0
  -44.7658   57.1918   65.8300 C   0  0  0  0  0  0  0  0  0  0  0  0
  -45.9033   57.4172   66.8054 C   0  0  0  0  0  0  0  0  0  0  0  0
  -47.1545   56.7116   66.4465 C   0  0  0  0  0  0  0  0  0  0  0  0
  -48.2030   57.2447   65.8540 C   0  0  0  0  0  0  0  0  0  0  0  0
  -48.3524   58.6530   65.3781 C   0  0  0  0  0  0  0  0  0  0  0  0
  -49.4815   58.7447   64.3504 C   0  0  0  0  0  0  0  0  0  0  0  0
  -49.1114   58.3235   62.9358 C   0  0  0  0  0  0  0  0  0  0  0  0
  -50.2642   58.3298   61.9393 C   0  0  0  0  0  0  0  0  0  0  0  0
  -49.8813   58.8767   60.5681 C   0  0  0  0  0  0  0  0  0  0  0  0
  -50.2315   57.9459   59.4180 C   0  0  0  0  0  0  0  0  0  0  0  0
  -49.0451   57.2994   58.7186 C   0  0  0  0  0  0  0  0  0  0  0  0
  -48.2732   56.3815   59.6159 C   0  0  0  0  0  0  0  0  0  0  0  0
  -38.2224   61.2719   65.9194 O   0  0  0  0  0  0  0  0  0  0  0  0
  -37.0198   61.2885   66.7197 C   0  0  0  0  0  0  0  0  0  0  0  0
  -36.1733   62.5104   66.4317 C   0  0  0  0  0  0  0  0  0  0  0  0
  -35.6887   63.0994   67.6459 O   0  0  0  0  0  0  0  0  0  0  0  0
  -35.1088   62.4696   68.1020 H   0  0  0  0  0  0  0  0  0  0  0  0
  -35.0075   62.2067   65.5201 C   0  0  0  0  0  0  0  0  0  0  0  0
  -34.7889   60.7817   65.3824 O   0  0  0  0  0  0  0  0  0  0  0  0
  -34.6681   59.8264   64.0983 P   0  0  0  0  0  0  0  0  0  0  0  0
  -34.1465   58.4673   64.5617 O   0  0  0  0  0  0  0  0  0  0  0  0
  -33.6847   60.4134   63.1619 O   0  0  0  0  0  0  0  0  0  0  0  0
  -32.8352   60.5289   63.6157 H   0  0  0  0  0  0  0  0  0  0  0  0
  -36.1258   59.6136   63.3671 O   0  0  0  0  0  0  0  0  0  0  0  0
  -36.4894   58.5091   62.4949 C   0  0  0  0  0  0  0  0  0  0  0  0
  -37.9806   58.2837   62.5329 C   0  0  0  0  0  0  0  0  0  0  0  0
  -38.7799   58.8447   61.3713 N   0  0  0  0  0  0  0  0  0  0  0  0
  -40.1206   58.1878   61.2924 C   0  0  0  0  0  0  0  0  0  0  0  0
  -38.0335   58.5782   60.1055 C   0  0  0  0  0  0  0  0  0  0  0  0
  -38.9741   60.3254   61.5323 C   0  0  0  0  0  0  0  0  0  0  0  0
 34 33  1  0  0  0
 34 35  1  0  0  0
 34 36  1  0  0  0
 34 37  1  0  0  0
 22 23  1  0  0  0
 22 25  1  0  0  0
 22 21  1  0  0  0
 23 24  1  0  0  0
 27 26  1  0  0  0
 27 28  2  0  0  0
 27 31  1  0  0  0
 27 29  1  0  0  0
 25 26  1  0  0  0
 32 33  1  0  0  0
 32 31  1  0  0  0
 29 30  1  0  0  0
 20 21  1  0  0  0
 20  2  1  0  0  0
  1  2  2  0  0  0
  2  3  1  0  0  0
  3  4  1  0  0  0
  4  5  1  0  0  0
  5  6  1  0  0  0
  6  7  1  0  0  0
  7  8  1  0  0  0
  8  9  1  0  0  0
  9 10  1  0  0  0
 10 11  2  0  0  0
 11 12  1  0  0  0
 12 13  1  0  0  0
 13 14  1  0  0  0
 14 15  1  0  0  0
 15 16  1  0  0  0
 16 17  1  0  0  0
 17 18  1  0  0  0
 18 19  1  0  0  0
M  CHG 1  28  -1
M  END
> <minimizedAffinity>
-7.69461

> <CNNscore>
0.5695953369

> <CNNaffinity>
6.6850404739

> <CNN_VS>
3.8077678680

> <CNNaffinity_variance>
0.2987604737

$$$$
