/media/chris/experiments/cd1a-new-docking/inputs/ligands/4x6e_ligand.pdb


 37 36  0  0  0  0  0  0  0  0999 V2000
  -40.9633   60.9207   65.7427 O   0  0  0  0  0  0  0  0  0  0  0  0
  -41.7175   60.0716   65.3367 C   0  0  0  0  0  0  0  0  0  0  0  0
  -42.3175   58.9774   66.1653 C   0  0  0  0  0  0  0  0  0  0  0  0
  -43.6103   59.3905   66.8585 C   0  0  0  0  0  0  0  0  0  0  0  0
  -44.8729   59.0107   66.1043 C   0  0  0  0  0  0  0  0  0  0  0  0
  -46.1351   59.1291   66.9404 C   0  0  0  0  0  0  0  0  0  0  0  0
  -47.2555   58.2269   66.4520 C   0  0  0  0  0  0  0  0  0  0  0  0
  -47.4414   58.3059   64.9532 C   0  0  0  0  0  0  0  0  0  0  0  0
  -48.3155   59.4500   64.4813 C   0  0  0  0  0  0  0  0  0  0  0  0
  -49.6830   59.4382   65.0488 C   0  0  0  0  0  0  0  0  0  0  0  0
  -50.8059   59.5465   64.3690 C   0  0  0  0  0  0  0  0  0  0  0  0
  -50.9567   59.6631   62.8871 C   0  0  0  0  0  0  0  0  0  0  0  0
  -50.8866   58.2789   62.2401 C   0  0  0  0  0  0  0  0  0  0  0  0
  -49.7321   58.0698   61.2710 C   0  0  0  0  0  0  0  0  0  0  0  0
  -49.8976   56.8938   60.3159 C   0  0  0  0  0  0  0  0  0  0  0  0
  -48.6752   56.6453   59.4382 C   0  0  0  0  0  0  0  0  0  0  0  0
  -48.6115   57.5393   58.2100 C   0  0  0  0  0  0  0  0  0  0  0  0
  -47.6545   57.0811   57.1198 C   0  0  0  0  0  0  0  0  0  0  0  0
  -47.1101   55.7076   57.3662 C   0  0  0  0  0  0  0  0  0  0  0  0
  -42.1447   59.9880   64.0733 O   0  0  0  0  0  0  0  0  0  0  0  0
  -42.4914   61.2161   63.3963 C   0  0  0  0  0  0  0  0  0  0  0  0
  -43.0008   60.9572   61.9943 C   0  0  0  0  0  0  0  0  0  0  0  0
  -43.0630   62.1727   61.2358 O   0  0  0  0  0  0  0  0  0  0  0  0
  -42.1698   62.5378   61.1362 H   0  0  0  0  0  0  0  0  0  0  0  0
  -42.1635   59.9431   61.2509 C   0  0  0  0  0  0  0  0  0  0  0  0
  -40.8130   60.4175   61.0309 O   0  0  0  0  0  0  0  0  0  0  0  0
  -39.3771   59.7806   61.3604 P   0  0  0  0  0  0  0  0  0  0  0  0
  -38.4254   60.9160   61.7333 O   0  0  0  0  0  0  0  0  0  0  0  0
  -38.8629   59.1161   60.1429 O   0  0  0  0  0  0  0  0  0  0  0  0
  -38.8226   59.7580   59.4168 H   0  0  0  0  0  0  0  0  0  0  0  0
  -39.4614   58.7247   62.6188 O   0  0  0  0  0  0  0  0  0  0  0  0
  -38.6992   57.4943   62.7521 C   0  0  0  0  0  0  0  0  0  0  0  0
  -37.2203   57.7913   62.7231 C   0  0  0  0  0  0  0  0  0  0  0  0
  -36.5733   58.1382   64.0512 N   0  0  0  0  0  0  0  0  0  0  0  0
  -36.1087   59.5592   64.0521 C   0  0  0  0  0  0  0  0  0  0  0  0
  -35.3963   57.2424   64.2572 C   0  0  0  0  0  0  0  0  0  0  0  0
  -37.5482   57.9461   65.1778 C   0  0  0  0  0  0  0  0  0  0  0  0
 34 33  1  0  0  0
 34 35  1  0  0  0
 34 36  1  0  0  0
 34 37  1  0  0  0
 22 23  1  0  0  0
 22 25  1  0  0  0
 22 21  1  0  0  0
 23 24  1  0  0  0
 27 26  1  0  0  0
 27 28  2  0  0  0
 27 31  1  0  0  0
 27 29  1  0  0  0
 25 26  1  0  0  0
 32 33  1  0  0  0
 32 31  1  0  0  0
 29 30  1  0  0  0
 20 21  1  0  0  0
 20  2  1  0  0  0
  1  2  2  0  0  0
  2  3  1  0  0  0
  3  4  1  0  0  0
  4  5  1  0  0  0
  5  6  1  0  0  0
  6  7  1  0  0  0
  7  8  1  0  0  0
  8  9  1  0  0  0
  9 10  1  0  0  0
 10 11  2  0  0  0
 11 12  1  0  0  0
 12 13  1  0  0  0
 13 14  1  0  0  0
 14 15  1  0  0  0
 15 16  1  0  0  0
 16 17  1  0  0  0
 17 18  1  0  0  0
 18 19  1  0  0  0
M  CHG 1  28  -1
M  END
> <minimizedAffinity>
-7.93265

> <CNNscore>
0.9056260586

> <CNNaffinity>
7.3115983009

> <CNN_VS>
6.6215739250

> <CNNaffinity_variance>
0.3194940090

$$$$
/media/chris/experiments/cd1a-new-docking/inputs/ligands/4x6e_ligand.pdb


 37 36  0  0  0  0  0  0  0  0999 V2000
  -42.0979   55.2811   64.6916 O   0  0  0  0  0  0  0  0  0  0  0  0
  -42.0901   56.4774   64.5382 C   0  0  0  0  0  0  0  0  0  0  0  0
  -42.3218   57.4909   65.6166 C   0  0  0  0  0  0  0  0  0  0  0  0
  -43.6239   57.2700   66.3771 C   0  0  0  0  0  0  0  0  0  0  0  0
  -44.8768   57.5590   65.5682 C   0  0  0  0  0  0  0  0  0  0  0  0
  -45.4568   58.9389   65.8246 C   0  0  0  0  0  0  0  0  0  0  0  0
  -45.1543   59.9248   64.7091 C   0  0  0  0  0  0  0  0  0  0  0  0
  -46.4067   60.5752   64.1653 C   0  0  0  0  0  0  0  0  0  0  0  0
  -47.6219   59.6716   64.1172 C   0  0  0  0  0  0  0  0  0  0  0  0
  -48.8695   60.3128   64.5910 C   0  0  0  0  0  0  0  0  0  0  0  0
  -50.0945   59.8790   64.3765 C   0  0  0  0  0  0  0  0  0  0  0  0
  -50.4984   58.6365   63.6515 C   0  0  0  0  0  0  0  0  0  0  0  0
  -51.0146   58.9859   62.2548 C   0  0  0  0  0  0  0  0  0  0  0  0
  -49.9993   58.8449   61.1302 C   0  0  0  0  0  0  0  0  0  0  0  0
  -50.1899   57.6231   60.2395 C   0  0  0  0  0  0  0  0  0  0  0  0
  -49.1247   56.5503   60.4410 C   0  0  0  0  0  0  0  0  0  0  0  0
  -48.3166   56.2471   59.1892 C   0  0  0  0  0  0  0  0  0  0  0  0
  -48.5070   57.2240   58.0386 C   0  0  0  0  0  0  0  0  0  0  0  0
  -47.4051   57.1496   57.0268 C   0  0  0  0  0  0  0  0  0  0  0  0
  -41.8582   57.0836   63.3702 O   0  0  0  0  0  0  0  0  0  0  0  0
  -40.6604   56.7209   62.6485 C   0  0  0  0  0  0  0  0  0  0  0  0
  -40.5320   57.4944   61.3534 C   0  0  0  0  0  0  0  0  0  0  0  0
  -41.3042   56.8848   60.3100 O   0  0  0  0  0  0  0  0  0  0  0  0
  -42.2444   56.9085   60.5476 H   0  0  0  0  0  0  0  0  0  0  0  0
  -40.9389   58.9419   61.4995 C   0  0  0  0  0  0  0  0  0  0  0  0
  -39.7892   59.8165   61.6035 O   0  0  0  0  0  0  0  0  0  0  0  0
  -38.9977   60.4151   62.8649 P   0  0  0  0  0  0  0  0  0  0  0  0
  -40.0065   61.1178   63.7719 O   0  0  0  0  0  0  0  0  0  0  0  0
  -38.0227   61.4167   62.3807 O   0  0  0  0  0  0  0  0  0  0  0  0
  -38.4876   62.1040   61.8783 H   0  0  0  0  0  0  0  0  0  0  0  0
  -38.2490   59.2290   63.7238 O   0  0  0  0  0  0  0  0  0  0  0  0
  -37.1120   59.4071   64.6118 C   0  0  0  0  0  0  0  0  0  0  0  0
  -36.0919   58.3205   64.3772 C   0  0  0  0  0  0  0  0  0  0  0  0
  -34.6624   58.7730   64.1442 N   0  0  0  0  0  0  0  0  0  0  0  0
  -34.1755   58.3043   62.8106 C   0  0  0  0  0  0  0  0  0  0  0  0
  -33.7964   58.1870   65.2106 C   0  0  0  0  0  0  0  0  0  0  0  0
  -34.5694   60.2714   64.1951 C   0  0  0  0  0  0  0  0  0  0  0  0
 34 33  1  0  0  0
 34 35  1  0  0  0
 34 36  1  0  0  0
 34 37  1  0  0  0
 22 23  1  0  0  0
 22 25  1  0  0  0
 22 21  1  0  0  0
 23 24  1  0  0  0
 27 26  1  0  0  0
 27 28  2  0  0  0
 27 31  1  0  0  0
 27 29  1  0  0  0
 25 26  1  0  0  0
 32 33  1  0  0  0
 32 31  1  0  0  0
 29 30  1  0  0  0
 20 21  1  0  0  0
 20  2  1  0  0  0
  1  2  2  0  0  0
  2  3  1  0  0  0
  3  4  1  0  0  0
  4  5  1  0  0  0
  5  6  1  0  0  0
  6  7  1  0  0  0
  7  8  1  0  0  0
  8  9  1  0  0  0
  9 10  1  0  0  0
 10 11  2  0  0  0
 11 12  1  0  0  0
 12 13  1  0  0  0
 13 14  1  0  0  0
 14 15  1  0  0  0
 15 16  1  0  0  0
 16 17  1  0  0  0
 17 18  1  0  0  0
 18 19  1  0  0  0
M  CHG 1  28  -1
M  END
> <minimizedAffinity>
-7.66704

> <CNNscore>
0.8149014711

> <CNNaffinity>
6.8963880539

> <CNN_VS>
5.6198768616

> <CNNaffinity_variance>
0.2830975354

$$$$
/media/chris/experiments/cd1a-new-docking/inputs/ligands/4x6e_ligand.pdb


 37 36  0  0  0  0  0  0  0  0999 V2000
  -41.9346   57.4392   62.4923 O   0  0  0  0  0  0  0  0  0  0  0  0
  -41.4315   57.7537   63.5423 C   0  0  0  0  0  0  0  0  0  0  0  0
  -42.0321   57.5223   64.8949 C   0  0  0  0  0  0  0  0  0  0  0  0
  -43.5558   57.4944   64.8774 C   0  0  0  0  0  0  0  0  0  0  0  0
  -44.2077   58.2255   66.0383 C   0  0  0  0  0  0  0  0  0  0  0  0
  -45.4790   57.5594   66.5348 C   0  0  0  0  0  0  0  0  0  0  0  0
  -46.6167   58.5425   66.7510 C   0  0  0  0  0  0  0  0  0  0  0  0
  -46.4575   59.7942   65.9174 C   0  0  0  0  0  0  0  0  0  0  0  0
  -47.5271   59.9953   64.8632 C   0  0  0  0  0  0  0  0  0  0  0  0
  -47.6096   58.8996   63.8709 C   0  0  0  0  0  0  0  0  0  0  0  0
  -48.6682   58.5787   63.1558 C   0  0  0  0  0  0  0  0  0  0  0  0
  -49.9966   59.2626   63.1522 C   0  0  0  0  0  0  0  0  0  0  0  0
  -50.9772   58.5037   62.2567 C   0  0  0  0  0  0  0  0  0  0  0  0
  -50.3418   57.5511   61.2545 C   0  0  0  0  0  0  0  0  0  0  0  0
  -50.3987   58.0111   59.8028 C   0  0  0  0  0  0  0  0  0  0  0  0
  -49.1752   57.6063   58.9872 C   0  0  0  0  0  0  0  0  0  0  0  0
  -48.4770   56.3601   59.5082 C   0  0  0  0  0  0  0  0  0  0  0  0
  -47.3051   55.8716   58.6702 C   0  0  0  0  0  0  0  0  0  0  0  0
  -47.3150   56.4282   57.2797 C   0  0  0  0  0  0  0  0  0  0  0  0
  -40.2421   58.3523   63.6561 O   0  0  0  0  0  0  0  0  0  0  0  0
  -39.7115   58.5502   64.9851 C   0  0  0  0  0  0  0  0  0  0  0  0
  -39.3721   60.0033   65.2410 C   0  0  0  0  0  0  0  0  0  0  0  0
  -40.4027   60.6470   66.0027 O   0  0  0  0  0  0  0  0  0  0  0  0
  -40.4705   60.2271   66.8746 H   0  0  0  0  0  0  0  0  0  0  0  0
  -38.0462   60.1742   65.9444 C   0  0  0  0  0  0  0  0  0  0  0  0
  -37.7779   61.5625   66.2577 O   0  0  0  0  0  0  0  0  0  0  0  0
  -36.7661   62.6365   65.6262 P   0  0  0  0  0  0  0  0  0  0  0  0
  -36.9569   63.9620   66.3615 O   0  0  0  0  0  0  0  0  0  0  0  0
  -37.1132   62.8341   64.2019 O   0  0  0  0  0  0  0  0  0  0  0  0
  -38.0390   63.1148   64.1306 H   0  0  0  0  0  0  0  0  0  0  0  0
  -35.2009   62.1589   65.7920 O   0  0  0  0  0  0  0  0  0  0  0  0
  -34.6944   60.8116   65.5892 C   0  0  0  0  0  0  0  0  0  0  0  0
  -34.5306   60.5325   64.1156 C   0  0  0  0  0  0  0  0  0  0  0  0
  -34.5670   59.0751   63.6945 N   0  0  0  0  0  0  0  0  0  0  0  0
  -35.8958   58.7348   63.0998 C   0  0  0  0  0  0  0  0  0  0  0  0
  -34.3427   58.2239   64.9010 C   0  0  0  0  0  0  0  0  0  0  0  0
  -33.4954   58.7931   62.6803 C   0  0  0  0  0  0  0  0  0  0  0  0
 34 33  1  0  0  0
 34 35  1  0  0  0
 34 36  1  0  0  0
 34 37  1  0  0  0
 22 23  1  0  0  0
 22 25  1  0  0  0
 22 21  1  0  0  0
 23 24  1  0  0  0
 27 26  1  0  0  0
 27 28  2  0  0  0
 27 31  1  0  0  0
 27 29  1  0  0  0
 25 26  1  0  0  0
 32 33  1  0  0  0
 32 31  1  0  0  0
 29 30  1  0  0  0
 20 21  1  0  0  0
 20  2  1  0  0  0
  1  2  2  0  0  0
  2  3  1  0  0  0
  3  4  1  0  0  0
  4  5  1  0  0  0
  5  6  1  0  0  0
  6  7  1  0  0  0
  7  8  1  0  0  0
  8  9  1  0  0  0
  9 10  1  0  0  0
 10 11  2  0  0  0
 11 12  1  0  0  0
 12 13  1  0  0  0
 13 14  1  0  0  0
 14 15  1  0  0  0
 15 16  1  0  0  0
 16 17  1  0  0  0
 17 18  1  0  0  0
 18 19  1  0  0  0
M  CHG 1  28  -1
M  END
> <minimizedAffinity>
-7.86022

> <CNNscore>
0.7974513769

> <CNNaffinity>
6.9003171921

> <CNN_VS>
5.5026674271

> <CNNaffinity_variance>
0.2411225140

$$$$
/media/chris/experiments/cd1a-new-docking/inputs/ligands/4x6e_ligand.pdb


 37 36  0  0  0  0  0  0  0  0999 V2000
  -41.3936   56.6166   63.3194 O   0  0  0  0  0  0  0  0  0  0  0  0
  -42.2251   57.0916   64.0526 C   0  0  0  0  0  0  0  0  0  0  0  0
  -42.8851   56.3777   65.1921 C   0  0  0  0  0  0  0  0  0  0  0  0
  -43.4093   57.3215   66.2678 C   0  0  0  0  0  0  0  0  0  0  0  0
  -44.9237   57.4279   66.3221 C   0  0  0  0  0  0  0  0  0  0  0  0
  -45.4433   58.8204   66.0108 C   0  0  0  0  0  0  0  0  0  0  0  0
  -46.5360   58.8224   64.9555 C   0  0  0  0  0  0  0  0  0  0  0  0
  -47.3183   60.1167   64.9444 C   0  0  0  0  0  0  0  0  0  0  0  0
  -48.5528   60.1199   65.8228 C   0  0  0  0  0  0  0  0  0  0  0  0
  -49.3300   58.8605   65.7757 C   0  0  0  0  0  0  0  0  0  0  0  0
  -50.1939   58.5165   64.8429 C   0  0  0  0  0  0  0  0  0  0  0  0
  -50.5521   59.2886   63.6149 C   0  0  0  0  0  0  0  0  0  0  0  0
  -50.5583   58.3653   62.3955 C   0  0  0  0  0  0  0  0  0  0  0  0
  -49.9947   58.9692   61.1175 C   0  0  0  0  0  0  0  0  0  0  0  0
  -50.0670   58.0664   59.8918 C   0  0  0  0  0  0  0  0  0  0  0  0
  -49.6133   56.6355   60.1617 C   0  0  0  0  0  0  0  0  0  0  0  0
  -48.2662   56.2938   59.5451 C   0  0  0  0  0  0  0  0  0  0  0  0
  -48.0522   56.7993   58.1263 C   0  0  0  0  0  0  0  0  0  0  0  0
  -47.5576   55.7319   57.1991 C   0  0  0  0  0  0  0  0  0  0  0  0
  -42.6775   58.3458   63.9629 O   0  0  0  0  0  0  0  0  0  0  0  0
  -42.7941   58.9277   62.6458 C   0  0  0  0  0  0  0  0  0  0  0  0
  -42.2103   60.3237   62.5976 C   0  0  0  0  0  0  0  0  0  0  0  0
  -42.8186   61.1712   63.5816 O   0  0  0  0  0  0  0  0  0  0  0  0
  -42.6259   60.8275   64.4680 H   0  0  0  0  0  0  0  0  0  0  0  0
  -40.7112   60.3324   62.7845 C   0  0  0  0  0  0  0  0  0  0  0  0
  -40.3365   60.7794   64.1101 O   0  0  0  0  0  0  0  0  0  0  0  0
  -39.7046   60.0125   65.3704 P   0  0  0  0  0  0  0  0  0  0  0  0
  -39.0826   58.7087   64.8732 O   0  0  0  0  0  0  0  0  0  0  0  0
  -40.7914   59.6838   66.3186 O   0  0  0  0  0  0  0  0  0  0  0  0
  -41.4661   59.1538   65.8661 H   0  0  0  0  0  0  0  0  0  0  0  0
  -38.5370   60.9128   66.0993 O   0  0  0  0  0  0  0  0  0  0  0  0
  -37.1499   61.0140   65.6766 C   0  0  0  0  0  0  0  0  0  0  0  0
  -36.3799   61.9017   66.6229 C   0  0  0  0  0  0  0  0  0  0  0  0
  -35.6137   63.0531   65.9987 N   0  0  0  0  0  0  0  0  0  0  0  0
  -36.3627   63.6080   64.8297 C   0  0  0  0  0  0  0  0  0  0  0  0
  -34.2889   62.5469   65.5305 C   0  0  0  0  0  0  0  0  0  0  0  0
  -35.4008   64.1498   67.0030 C   0  0  0  0  0  0  0  0  0  0  0  0
 34 33  1  0  0  0
 34 35  1  0  0  0
 34 36  1  0  0  0
 34 37  1  0  0  0
 22 23  1  0  0  0
 22 25  1  0  0  0
 22 21  1  0  0  0
 23 24  1  0  0  0
 27 26  1  0  0  0
 27 28  2  0  0  0
 27 31  1  0  0  0
 27 29  1  0  0  0
 25 26  1  0  0  0
 32 33  1  0  0  0
 32 31  1  0  0  0
 29 30  1  0  0  0
 20 21  1  0  0  0
 20  2  1  0  0  0
  1  2  2  0  0  0
  2  3  1  0  0  0
  3  4  1  0  0  0
  4  5  1  0  0  0
  5  6  1  0  0  0
  6  7  1  0  0  0
  7  8  1  0  0  0
  8  9  1  0  0  0
  9 10  1  0  0  0
 10 11  2  0  0  0
 11 12  1  0  0  0
 12 13  1  0  0  0
 13 14  1  0  0  0
 14 15  1  0  0  0
 15 16  1  0  0  0
 16 17  1  0  0  0
 17 18  1  0  0  0
 18 19  1  0  0  0
M  CHG 1  28  -1
M  END
> <minimizedAffinity>
-7.75166

> <CNNscore>
0.7625766397

> <CNNaffinity>
6.6758360863

> <CNN_VS>
5.0908365250

> <CNNaffinity_variance>
0.2243243009

$$$$
/media/chris/experiments/cd1a-new-docking/inputs/ligands/4x6e_ligand.pdb


 37 36  0  0  0  0  0  0  0  0999 V2000
  -39.8224   58.8237   65.7143 O   0  0  0  0  0  0  0  0  0  0  0  0
  -40.0955   59.9623   66.0034 C   0  0  0  0  0  0  0  0  0  0  0  0
  -41.4739   60.4798   66.2793 C   0  0  0  0  0  0  0  0  0  0  0  0
  -42.2577   59.6080   67.2530 C   0  0  0  0  0  0  0  0  0  0  0  0
  -43.3363   58.7587   66.6027 C   0  0  0  0  0  0  0  0  0  0  0  0
  -44.4089   59.5753   65.9035 C   0  0  0  0  0  0  0  0  0  0  0  0
  -45.8118   59.0506   66.1570 C   0  0  0  0  0  0  0  0  0  0  0  0
  -46.8537   60.1443   66.0831 C   0  0  0  0  0  0  0  0  0  0  0  0
  -47.7397   60.0952   64.8550 C   0  0  0  0  0  0  0  0  0  0  0  0
  -47.9013   58.7397   64.2816 C   0  0  0  0  0  0  0  0  0  0  0  0
  -49.0188   58.2239   63.8127 C   0  0  0  0  0  0  0  0  0  0  0  0
  -50.3512   58.8931   63.7157 C   0  0  0  0  0  0  0  0  0  0  0  0
  -50.9971   58.5868   62.3635 C   0  0  0  0  0  0  0  0  0  0  0  0
  -50.1096   58.8188   61.1494 C   0  0  0  0  0  0  0  0  0  0  0  0
  -50.2453   57.7786   60.0440 C   0  0  0  0  0  0  0  0  0  0  0  0
  -49.3917   56.5350   60.2697 C   0  0  0  0  0  0  0  0  0  0  0  0
  -48.2782   56.3631   59.2487 C   0  0  0  0  0  0  0  0  0  0  0  0
  -48.3663   57.2695   58.0301 C   0  0  0  0  0  0  0  0  0  0  0  0
  -47.6776   56.6958   56.8301 C   0  0  0  0  0  0  0  0  0  0  0  0
  -39.1949   60.9409   66.1341 O   0  0  0  0  0  0  0  0  0  0  0  0
  -37.8106   60.5646   66.3052 C   0  0  0  0  0  0  0  0  0  0  0  0
  -36.8798   61.5103   65.5762 C   0  0  0  0  0  0  0  0  0  0  0  0
  -37.1726   62.8756   65.9029 O   0  0  0  0  0  0  0  0  0  0  0  0
  -37.0198   63.0215   66.8497 H   0  0  0  0  0  0  0  0  0  0  0  0
  -35.4239   61.2263   65.8619 C   0  0  0  0  0  0  0  0  0  0  0  0
  -34.7349   60.7188   64.6935 O   0  0  0  0  0  0  0  0  0  0  0  0
  -34.8808   59.3545   63.8610 P   0  0  0  0  0  0  0  0  0  0  0  0
  -35.0586   58.2064   64.8532 O   0  0  0  0  0  0  0  0  0  0  0  0
  -33.6331   59.1288   63.0989 O   0  0  0  0  0  0  0  0  0  0  0  0
  -32.8802   59.1080   63.7100 H   0  0  0  0  0  0  0  0  0  0  0  0
  -36.1851   59.3967   62.8598 O   0  0  0  0  0  0  0  0  0  0  0  0
  -37.4660   58.7531   63.1004 C   0  0  0  0  0  0  0  0  0  0  0  0
  -37.8580   57.9112   61.9115 C   0  0  0  0  0  0  0  0  0  0  0  0
  -38.7542   58.5716   60.8803 N   0  0  0  0  0  0  0  0  0  0  0  0
  -40.0397   57.8202   60.7455 C   0  0  0  0  0  0  0  0  0  0  0  0
  -38.0496   58.5685   59.5635 C   0  0  0  0  0  0  0  0  0  0  0  0
  -39.0597   59.9876   61.2779 C   0  0  0  0  0  0  0  0  0  0  0  0
 34 33  1  0  0  0
 34 35  1  0  0  0
 34 36  1  0  0  0
 34 37  1  0  0  0
 22 23  1  0  0  0
 22 25  1  0  0  0
 22 21  1  0  0  0
 23 24  1  0  0  0
 27 26  1  0  0  0
 27 28  2  0  0  0
 27 31  1  0  0  0
 27 29  1  0  0  0
 25 26  1  0  0  0
 32 33  1  0  0  0
 32 31  1  0  0  0
 29 30  1  0  0  0
 20 21  1  0  0  0
 20  2  1  0  0  0
  1  2  2  0  0  0
  2  3  1  0  0  0
  3  4  1  0  0  0
  4  5  1  0  0  0
  5  6  1  0  0  0
  6  7  1  0  0  0
  7  8  1  0  0  0
  8  9  1  0  0  0
  9 10  1  0  0  0
 10 11  2  0  0  0
 11 12  1  0  0  0
 12 13  1  0  0  0
 13 14  1  0  0  0
 14 15  1  0  0  0
 15 16  1  0  0  0
 16 17  1  0  0  0
 17 18  1  0  0  0
 18 19  1  0  0  0
M  CHG 1  28  -1
M  END
> <minimizedAffinity>
-8.14794

> <CNNscore>
0.6829894781

> <CNNaffinity>
6.7429952621

> <CNN_VS>
4.6053948402

> <CNNaffinity_variance>
0.2622645199

$$$$
/media/chris/experiments/cd1a-new-docking/inputs/ligands/4x6e_ligand.pdb


 37 36  0  0  0  0  0  0  0  0999 V2000
  -42.1949   57.1698   63.4643 O   0  0  0  0  0  0  0  0  0  0  0  0
  -42.6599   58.1435   62.9256 C   0  0  0  0  0  0  0  0  0  0  0  0
  -43.9918   58.7537   63.2380 C   0  0  0  0  0  0  0  0  0  0  0  0
  -44.5691   58.2842   64.5681 C   0  0  0  0  0  0  0  0  0  0  0  0
  -45.5804   59.2371   65.1817 C   0  0  0  0  0  0  0  0  0  0  0  0
  -46.8369   59.4054   64.3457 C   0  0  0  0  0  0  0  0  0  0  0  0
  -47.8612   60.3209   64.9942 C   0  0  0  0  0  0  0  0  0  0  0  0
  -48.6822   59.6073   66.0449 C   0  0  0  0  0  0  0  0  0  0  0  0
  -50.0081   59.0632   65.5534 C   0  0  0  0  0  0  0  0  0  0  0  0
  -50.7723   60.0089   64.7085 C   0  0  0  0  0  0  0  0  0  0  0  0
  -51.1763   59.7936   63.4735 C   0  0  0  0  0  0  0  0  0  0  0  0
  -50.9945   58.5483   62.6682 C   0  0  0  0  0  0  0  0  0  0  0  0
  -49.6843   58.6162   61.8820 C   0  0  0  0  0  0  0  0  0  0  0  0
  -49.8241   58.9846   60.4122 C   0  0  0  0  0  0  0  0  0  0  0  0
  -50.0966   57.8124   59.4772 C   0  0  0  0  0  0  0  0  0  0  0  0
  -49.4386   56.5111   59.9241 C   0  0  0  0  0  0  0  0  0  0  0  0
  -48.0626   56.2816   59.3192 C   0  0  0  0  0  0  0  0  0  0  0  0
  -47.8930   56.7617   57.8857 C   0  0  0  0  0  0  0  0  0  0  0  0
  -47.2151   55.7511   57.0123 C   0  0  0  0  0  0  0  0  0  0  0  0
  -42.0419   58.8384   61.9660 O   0  0  0  0  0  0  0  0  0  0  0  0
  -40.5975   58.8649   61.9768 C   0  0  0  0  0  0  0  0  0  0  0  0
  -40.0662   60.2296   62.3609 C   0  0  0  0  0  0  0  0  0  0  0  0
  -40.3219   60.5120   63.7434 O   0  0  0  0  0  0  0  0  0  0  0  0
  -39.8486   59.8714   64.2972 H   0  0  0  0  0  0  0  0  0  0  0  0
  -38.5885   60.3761   62.0830 C   0  0  0  0  0  0  0  0  0  0  0  0
  -38.1149   61.7123   62.3792 O   0  0  0  0  0  0  0  0  0  0  0  0
  -37.1107   62.2799   63.4951 P   0  0  0  0  0  0  0  0  0  0  0  0
  -37.7659   62.0990   64.8633 O   0  0  0  0  0  0  0  0  0  0  0  0
  -36.9076   63.7259   63.2582 O   0  0  0  0  0  0  0  0  0  0  0  0
  -37.7651   64.1792   63.2703 H   0  0  0  0  0  0  0  0  0  0  0  0
  -35.6780   61.4723   63.4824 O   0  0  0  0  0  0  0  0  0  0  0  0
  -34.7084   61.4386   64.5648 C   0  0  0  0  0  0  0  0  0  0  0  0
  -33.5968   62.4237   64.2999 C   0  0  0  0  0  0  0  0  0  0  0  0
  -33.3615   63.4808   65.3629 N   0  0  0  0  0  0  0  0  0  0  0  0
  -31.9220   63.8840   65.3909 C   0  0  0  0  0  0  0  0  0  0  0  0
  -33.7322   62.9113   66.6927 C   0  0  0  0  0  0  0  0  0  0  0  0
  -34.2004   64.6969   65.0909 C   0  0  0  0  0  0  0  0  0  0  0  0
 34 33  1  0  0  0
 34 35  1  0  0  0
 34 36  1  0  0  0
 34 37  1  0  0  0
 22 23  1  0  0  0
 22 25  1  0  0  0
 22 21  1  0  0  0
 23 24  1  0  0  0
 27 26  1  0  0  0
 27 28  2  0  0  0
 27 31  1  0  0  0
 27 29  1  0  0  0
 25 26  1  0  0  0
 32 33  1  0  0  0
 32 31  1  0  0  0
 29 30  1  0  0  0
 20 21  1  0  0  0
 20  2  1  0  0  0
  1  2  2  0  0  0
  2  3  1  0  0  0
  3  4  1  0  0  0
  4  5  1  0  0  0
  5  6  1  0  0  0
  6  7  1  0  0  0
  7  8  1  0  0  0
  8  9  1  0  0  0
  9 10  1  0  0  0
 10 11  2  0  0  0
 11 12  1  0  0  0
 12 13  1  0  0  0
 13 14  1  0  0  0
 14 15  1  0  0  0
 15 16  1  0  0  0
 16 17  1  0  0  0
 17 18  1  0  0  0
 18 19  1  0  0  0
M  CHG 1  28  -1
M  END
> <minimizedAffinity>
-8.01142

> <CNNscore>
0.6390830874

> <CNNaffinity>
6.3060646057

> <CNN_VS>
4.0300993919

> <CNNaffinity_variance>
0.3694343269

$$$$
/media/chris/experiments/cd1a-new-docking/inputs/ligands/4x6e_ligand.pdb


 37 36  0  0  0  0  0  0  0  0999 V2000
  -43.3666   57.9926   66.5488 O   0  0  0  0  0  0  0  0  0  0  0  0
  -43.2241   58.8183   65.6813 C   0  0  0  0  0  0  0  0  0  0  0  0
  -43.6183   58.6450   64.2466 C   0  0  0  0  0  0  0  0  0  0  0  0
  -45.1058   58.8693   64.0024 C   0  0  0  0  0  0  0  0  0  0  0  0
  -45.6507   60.1547   64.6010 C   0  0  0  0  0  0  0  0  0  0  0  0
  -47.1502   60.3159   64.4237 C   0  0  0  0  0  0  0  0  0  0  0  0
  -47.9280   60.0657   65.7043 C   0  0  0  0  0  0  0  0  0  0  0  0
  -48.6187   58.7202   65.7006 C   0  0  0  0  0  0  0  0  0  0  0  0
  -50.1325   58.7836   65.7083 C   0  0  0  0  0  0  0  0  0  0  0  0
  -50.6904   59.9651   65.0118 C   0  0  0  0  0  0  0  0  0  0  0  0
  -51.0896   60.0092   63.7574 C   0  0  0  0  0  0  0  0  0  0  0  0
  -51.1090   58.8829   62.7759 C   0  0  0  0  0  0  0  0  0  0  0  0
  -49.7600   58.7833   62.0618 C   0  0  0  0  0  0  0  0  0  0  0  0
  -49.8219   58.8279   60.5420 C   0  0  0  0  0  0  0  0  0  0  0  0
  -50.2105   57.5144   59.8741 C   0  0  0  0  0  0  0  0  0  0  0  0
  -49.2206   56.3833   60.1329 C   0  0  0  0  0  0  0  0  0  0  0  0
  -48.0854   56.3202   59.1233 C   0  0  0  0  0  0  0  0  0  0  0  0
  -48.2286   57.2447   57.9237 C   0  0  0  0  0  0  0  0  0  0  0  0
  -47.9379   56.5580   56.6247 C   0  0  0  0  0  0  0  0  0  0  0  0
  -42.6975   60.0307   65.8774 O   0  0  0  0  0  0  0  0  0  0  0  0
  -41.3213   60.1060   66.3103 C   0  0  0  0  0  0  0  0  0  0  0  0
  -40.3635   60.0666   65.1385 C   0  0  0  0  0  0  0  0  0  0  0  0
  -40.7436   61.0126   64.1300 O   0  0  0  0  0  0  0  0  0  0  0  0
  -40.6908   61.9107   64.4928 H   0  0  0  0  0  0  0  0  0  0  0  0
  -38.9321   60.3190   65.5504 C   0  0  0  0  0  0  0  0  0  0  0  0
  -38.3157   61.3551   64.7480 O   0  0  0  0  0  0  0  0  0  0  0  0
  -37.3836   61.2997   63.4427 P   0  0  0  0  0  0  0  0  0  0  0  0
  -38.2877   61.2537   62.2120 O   0  0  0  0  0  0  0  0  0  0  0  0
  -36.5826   60.0567   63.4849 O   0  0  0  0  0  0  0  0  0  0  0  0
  -37.1758   59.2917   63.5459 H   0  0  0  0  0  0  0  0  0  0  0  0
  -36.4138   62.6241   63.3389 O   0  0  0  0  0  0  0  0  0  0  0  0
  -36.4871   63.8032   64.1857 C   0  0  0  0  0  0  0  0  0  0  0  0
  -35.1060   64.2047   64.6412 C   0  0  0  0  0  0  0  0  0  0  0  0
  -34.7310   63.8421   66.0662 N   0  0  0  0  0  0  0  0  0  0  0  0
  -35.9288   63.9156   66.9578 C   0  0  0  0  0  0  0  0  0  0  0  0
  -33.7044   64.8122   66.5512 C   0  0  0  0  0  0  0  0  0  0  0  0
  -34.1678   62.4507   66.1246 C   0  0  0  0  0  0  0  0  0  0  0  0
 34 33  1  0  0  0
 34 35  1  0  0  0
 34 36  1  0  0  0
 34 37  1  0  0  0
 22 23  1  0  0  0
 22 25  1  0  0  0
 22 21  1  0  0  0
 23 24  1  0  0  0
 27 26  1  0  0  0
 27 28  2  0  0  0
 27 31  1  0  0  0
 27 29  1  0  0  0
 25 26  1  0  0  0
 32 33  1  0  0  0
 32 31  1  0  0  0
 29 30  1  0  0  0
 20 21  1  0  0  0
 20  2  1  0  0  0
  1  2  2  0  0  0
  2  3  1  0  0  0
  3  4  1  0  0  0
  4  5  1  0  0  0
  5  6  1  0  0  0
  6  7  1  0  0  0
  7  8  1  0  0  0
  8  9  1  0  0  0
  9 10  1  0  0  0
 10 11  2  0  0  0
 11 12  1  0  0  0
 12 13  1  0  0  0
 13 14  1  0  0  0
 14 15  1  0  0  0
 15 16  1  0  0  0
 16 17  1  0  0  0
 17 18  1  0  0  0
 18 19  1  0  0  0
M  CHG 1  28  -1
M  END
> <minimizedAffinity>
-8.08234

> <CNNscore>
0.6345022917

> <CNNaffinity>
6.2943468094

> <CNN_VS>
3.9937775135

> <CNNaffinity_variance>
0.0852447450

$$$$
/media/chris/experiments/cd1a-new-docking/inputs/ligands/4x6e_ligand.pdb


 37 36  0  0  0  0  0  0  0  0999 V2000
  -42.4818   58.5570   61.2384 O   0  0  0  0  0  0  0  0  0  0  0  0
  -41.9302   59.6133   61.4244 C   0  0  0  0  0  0  0  0  0  0  0  0
  -42.5734   60.9605   61.3009 C   0  0  0  0  0  0  0  0  0  0  0  0
  -43.6889   61.1873   62.3143 C   0  0  0  0  0  0  0  0  0  0  0  0
  -43.4015   60.6261   63.6963 C   0  0  0  0  0  0  0  0  0  0  0  0
  -44.6027   59.9534   64.3372 C   0  0  0  0  0  0  0  0  0  0  0  0
  -45.8870   60.7462   64.1650 C   0  0  0  0  0  0  0  0  0  0  0  0
  -47.1118   59.8590   64.1681 C   0  0  0  0  0  0  0  0  0  0  0  0
  -48.1089   60.1570   65.2693 C   0  0  0  0  0  0  0  0  0  0  0  0
  -49.1459   59.1145   65.4425 C   0  0  0  0  0  0  0  0  0  0  0  0
  -50.3515   59.1240   64.9122 C   0  0  0  0  0  0  0  0  0  0  0  0
  -50.9263   60.1536   63.9946 C   0  0  0  0  0  0  0  0  0  0  0  0
  -50.9370   59.6308   62.5572 C   0  0  0  0  0  0  0  0  0  0  0  0
  -50.8715   58.1173   62.4133 C   0  0  0  0  0  0  0  0  0  0  0  0
  -51.0399   57.5975   60.9906 C   0  0  0  0  0  0  0  0  0  0  0  0
  -49.7455   57.0750   60.3759 C   0  0  0  0  0  0  0  0  0  0  0  0
  -49.3309   57.8057   59.1086 C   0  0  0  0  0  0  0  0  0  0  0  0
  -48.3404   57.0642   58.2236 C   0  0  0  0  0  0  0  0  0  0  0  0
  -47.6575   55.9372   58.9358 C   0  0  0  0  0  0  0  0  0  0  0  0
  -40.6496   59.7388   61.7848 O   0  0  0  0  0  0  0  0  0  0  0  0
  -39.6582   59.8106   60.7366 C   0  0  0  0  0  0  0  0  0  0  0  0
  -38.6131   58.7246   60.8799 C   0  0  0  0  0  0  0  0  0  0  0  0
  -37.8346   58.5970   59.6823 O   0  0  0  0  0  0  0  0  0  0  0  0
  -37.3485   59.4213   59.5233 H   0  0  0  0  0  0  0  0  0  0  0  0
  -37.6928   58.9565   62.0552 C   0  0  0  0  0  0  0  0  0  0  0  0
  -37.7290   60.3330   62.5039 O   0  0  0  0  0  0  0  0  0  0  0  0
  -38.0765   60.9981   63.9226 P   0  0  0  0  0  0  0  0  0  0  0  0
  -37.4597   60.1321   65.0198 O   0  0  0  0  0  0  0  0  0  0  0  0
  -39.5455   61.0025   64.0967 O   0  0  0  0  0  0  0  0  0  0  0  0
  -39.8826   60.0959   64.0231 H   0  0  0  0  0  0  0  0  0  0  0  0
  -37.4631   62.5196   64.0405 O   0  0  0  0  0  0  0  0  0  0  0  0
  -36.4854   62.9717   65.0165 C   0  0  0  0  0  0  0  0  0  0  0  0
  -35.6635   64.1012   64.4465 C   0  0  0  0  0  0  0  0  0  0  0  0
  -34.1583   63.9090   64.4444 N   0  0  0  0  0  0  0  0  0  0  0  0
  -33.4888   65.0255   63.7092 C   0  0  0  0  0  0  0  0  0  0  0  0
  -33.8427   62.6194   63.7605 C   0  0  0  0  0  0  0  0  0  0  0  0
  -33.6306   63.8690   65.8502 C   0  0  0  0  0  0  0  0  0  0  0  0
 34 33  1  0  0  0
 34 35  1  0  0  0
 34 36  1  0  0  0
 34 37  1  0  0  0
 22 23  1  0  0  0
 22 25  1  0  0  0
 22 21  1  0  0  0
 23 24  1  0  0  0
 27 26  1  0  0  0
 27 28  2  0  0  0
 27 31  1  0  0  0
 27 29  1  0  0  0
 25 26  1  0  0  0
 32 33  1  0  0  0
 32 31  1  0  0  0
 29 30  1  0  0  0
 20 21  1  0  0  0
 20  2  1  0  0  0
  1  2  2  0  0  0
  2  3  1  0  0  0
  3  4  1  0  0  0
  4  5  1  0  0  0
  5  6  1  0  0  0
  6  7  1  0  0  0
  7  8  1  0  0  0
  8  9  1  0  0  0
  9 10  1  0  0  0
 10 11  2  0  0  0
 11 12  1  0  0  0
 12 13  1  0  0  0
 13 14  1  0  0  0
 14 15  1  0  0  0
 15 16  1  0  0  0
 16 17  1  0  0  0
 17 18  1  0  0  0
 18 19  1  0  0  0
M  CHG 1  28  -1
M  END
> <minimizedAffinity>
-8.08288

> <CNNscore>
0.6188065410

> <CNNaffinity>
6.2893514633

> <CNN_VS>
3.8918917179

> <CNNaffinity_variance>
0.1604089290

$$$$
/media/chris/experiments/cd1a-new-docking/inputs/ligands/4x6e_ligand.pdb


 37 36  0  0  0  0  0  0  0  0999 V2000
  -40.8046   60.7543   66.0666 O   0  0  0  0  0  0  0  0  0  0  0  0
  -41.5109   59.7805   66.1526 C   0  0  0  0  0  0  0  0  0  0  0  0
  -42.8681   59.7474   66.7857 C   0  0  0  0  0  0  0  0  0  0  0  0
  -43.5357   58.3800   66.7013 C   0  0  0  0  0  0  0  0  0  0  0  0
  -44.8618   58.3766   65.9604 C   0  0  0  0  0  0  0  0  0  0  0  0
  -45.1050   59.6380   65.1506 C   0  0  0  0  0  0  0  0  0  0  0  0
  -46.2913   59.5178   64.2094 C   0  0  0  0  0  0  0  0  0  0  0  0
  -47.3363   60.5801   64.4675 C   0  0  0  0  0  0  0  0  0  0  0  0
  -48.2709   60.2841   65.6228 C   0  0  0  0  0  0  0  0  0  0  0  0
  -48.9252   58.9581   65.5449 C   0  0  0  0  0  0  0  0  0  0  0  0
  -50.0139   58.6693   64.8622 C   0  0  0  0  0  0  0  0  0  0  0  0
  -50.8036   59.5900   63.9899 C   0  0  0  0  0  0  0  0  0  0  0  0
  -51.1356   58.9036   62.6639 C   0  0  0  0  0  0  0  0  0  0  0  0
  -49.9383   58.3886   61.8786 C   0  0  0  0  0  0  0  0  0  0  0  0
  -50.2688   57.3699   60.7944 C   0  0  0  0  0  0  0  0  0  0  0  0
  -49.0599   56.9489   59.9652 C   0  0  0  0  0  0  0  0  0  0  0  0
  -49.1036   57.4389   58.5265 C   0  0  0  0  0  0  0  0  0  0  0  0
  -47.8575   57.1516   57.7025 C   0  0  0  0  0  0  0  0  0  0  0  0
  -47.2336   55.8314   58.0361 C   0  0  0  0  0  0  0  0  0  0  0  0
  -41.1877   58.5737   65.6784 O   0  0  0  0  0  0  0  0  0  0  0  0
  -40.1019   58.4912   64.7290 C   0  0  0  0  0  0  0  0  0  0  0  0
  -40.3554   57.4288   63.6805 C   0  0  0  0  0  0  0  0  0  0  0  0
  -41.5437   57.7173   62.9312 O   0  0  0  0  0  0  0  0  0  0  0  0
  -41.4276   58.5511   62.4493 H   0  0  0  0  0  0  0  0  0  0  0  0
  -39.1917   57.2603   62.7321 C   0  0  0  0  0  0  0  0  0  0  0  0
  -39.3540   58.0573   61.5338 O   0  0  0  0  0  0  0  0  0  0  0  0
  -38.6459   59.4063   61.0294 P   0  0  0  0  0  0  0  0  0  0  0  0
  -39.7169   60.3078   60.4177 O   0  0  0  0  0  0  0  0  0  0  0  0
  -37.6643   59.0615   59.9778 O   0  0  0  0  0  0  0  0  0  0  0  0
  -38.1131   58.5906   59.2583 H   0  0  0  0  0  0  0  0  0  0  0  0
  -37.9242   60.2079   62.2711 O   0  0  0  0  0  0  0  0  0  0  0  0
  -38.4897   61.3263   63.0074 C   0  0  0  0  0  0  0  0  0  0  0  0
  -37.4062   62.3095   63.3755 C   0  0  0  0  0  0  0  0  0  0  0  0
  -36.6346   62.0208   64.6499 N   0  0  0  0  0  0  0  0  0  0  0  0
  -37.3798   61.0458   65.5038 C   0  0  0  0  0  0  0  0  0  0  0  0
  -36.4657   63.2979   65.4054 C   0  0  0  0  0  0  0  0  0  0  0  0
  -35.2827   61.4499   64.3289 C   0  0  0  0  0  0  0  0  0  0  0  0
 34 33  1  0  0  0
 34 35  1  0  0  0
 34 36  1  0  0  0
 34 37  1  0  0  0
 22 23  1  0  0  0
 22 25  1  0  0  0
 22 21  1  0  0  0
 23 24  1  0  0  0
 27 26  1  0  0  0
 27 28  2  0  0  0
 27 31  1  0  0  0
 27 29  1  0  0  0
 25 26  1  0  0  0
 32 33  1  0  0  0
 32 31  1  0  0  0
 29 30  1  0  0  0
 20 21  1  0  0  0
 20  2  1  0  0  0
  1  2  2  0  0  0
  2  3  1  0  0  0
  3  4  1  0  0  0
  4  5  1  0  0  0
  5  6  1  0  0  0
  6  7  1  0  0  0
  7  8  1  0  0  0
  8  9  1  0  0  0
  9 10  1  0  0  0
 10 11  2  0  0  0
 11 12  1  0  0  0
 12 13  1  0  0  0
 13 14  1  0  0  0
 14 15  1  0  0  0
 15 16  1  0  0  0
 16 17  1  0  0  0
 17 18  1  0  0  0
 18 19  1  0  0  0
M  CHG 1  28  -1
M  END
> <minimizedAffinity>
-7.89119

> <CNNscore>
0.6047860384

> <CNNaffinity>
6.7936182022

> <CNN_VS>
4.1086854935

> <CNNaffinity_variance>
0.4485876560

$$$$
