/media/chris/experiments/cd1a-new-docking/inputs/ligands/4x6e_ligand.pdb


 37 36  0  0  0  0  0  0  0  0999 V2000
  -40.2361   58.6126   65.1941 O   0  0  0  0  0  0  0  0  0  0  0  0
  -40.3555   59.6748   65.7526 C   0  0  0  0  0  0  0  0  0  0  0  0
  -41.5662   60.1233   66.5122 C   0  0  0  0  0  0  0  0  0  0  0  0
  -42.3821   58.9665   67.0768 C   0  0  0  0  0  0  0  0  0  0  0  0
  -43.6081   58.6068   66.2552 C   0  0  0  0  0  0  0  0  0  0  0  0
  -44.2206   59.7935   65.5322 C   0  0  0  0  0  0  0  0  0  0  0  0
  -45.7388   59.7987   65.5836 C   0  0  0  0  0  0  0  0  0  0  0  0
  -46.2888   58.6241   66.3616 C   0  0  0  0  0  0  0  0  0  0  0  0
  -47.6881   58.1992   65.9651 C   0  0  0  0  0  0  0  0  0  0  0  0
  -48.7260   59.2222   66.2265 C   0  0  0  0  0  0  0  0  0  0  0  0
  -49.8432   59.3847   65.5482 C   0  0  0  0  0  0  0  0  0  0  0  0
  -50.3319   58.5600   64.4020 C   0  0  0  0  0  0  0  0  0  0  0  0
  -49.7869   59.1139   63.0846 C   0  0  0  0  0  0  0  0  0  0  0  0
  -50.7504   59.0637   61.9079 C   0  0  0  0  0  0  0  0  0  0  0  0
  -51.0065   57.6713   61.3440 C   0  0  0  0  0  0  0  0  0  0  0  0
  -49.8163   57.0927   60.5859 C   0  0  0  0  0  0  0  0  0  0  0  0
  -49.5345   57.7898   59.2644 C   0  0  0  0  0  0  0  0  0  0  0  0
  -48.4802   57.1273   58.3902 C   0  0  0  0  0  0  0  0  0  0  0  0
  -47.7524   56.0243   59.0952 C   0  0  0  0  0  0  0  0  0  0  0  0
  -39.4079   60.6163   65.7869 O   0  0  0  0  0  0  0  0  0  0  0  0
  -38.0546   60.2005   66.0746 C   0  0  0  0  0  0  0  0  0  0  0  0
  -37.0812   61.3557   65.9737 C   0  0  0  0  0  0  0  0  0  0  0  0
  -36.6220   61.7577   67.2714 O   0  0  0  0  0  0  0  0  0  0  0  0
  -36.1336   61.0272   67.6822 H   0  0  0  0  0  0  0  0  0  0  0  0
  -35.8931   61.0382   65.0962 C   0  0  0  0  0  0  0  0  0  0  0  0
  -35.7098   62.0314   64.0583 O   0  0  0  0  0  0  0  0  0  0  0  0
  -36.2944   63.5137   63.8663 P   0  0  0  0  0  0  0  0  0  0  0  0
  -36.9117   63.9588   65.1911 O   0  0  0  0  0  0  0  0  0  0  0  0
  -37.3597   63.4737   62.8406 O   0  0  0  0  0  0  0  0  0  0  0  0
  -38.0436   62.8405   63.1094 H   0  0  0  0  0  0  0  0  0  0  0  0
  -35.1119   64.5778   63.4485 O   0  0  0  0  0  0  0  0  0  0  0  0
  -33.6864   64.2961   63.4085 C   0  0  0  0  0  0  0  0  0  0  0  0
  -32.9032   65.5039   63.8599 C   0  0  0  0  0  0  0  0  0  0  0  0
  -32.0230   65.3219   65.0825 N   0  0  0  0  0  0  0  0  0  0  0  0
  -32.8399   65.3991   66.3323 C   0  0  0  0  0  0  0  0  0  0  0  0
  -31.0017   66.4112   65.1018 C   0  0  0  0  0  0  0  0  0  0  0  0
  -31.3293   63.9901   65.0383 C   0  0  0  0  0  0  0  0  0  0  0  0
 34 33  1  0  0  0
 34 35  1  0  0  0
 34 36  1  0  0  0
 34 37  1  0  0  0
 22 23  1  0  0  0
 22 25  1  0  0  0
 22 21  1  0  0  0
 23 24  1  0  0  0
 27 26  1  0  0  0
 27 28  2  0  0  0
 27 31  1  0  0  0
 27 29  1  0  0  0
 25 26  1  0  0  0
 32 33  1  0  0  0
 32 31  1  0  0  0
 29 30  1  0  0  0
 20 21  1  0  0  0
 20  2  1  0  0  0
  1  2  2  0  0  0
  2  3  1  0  0  0
  3  4  1  0  0  0
  4  5  1  0  0  0
  5  6  1  0  0  0
  6  7  1  0  0  0
  7  8  1  0  0  0
  8  9  1  0  0  0
  9 10  1  0  0  0
 10 11  2  0  0  0
 11 12  1  0  0  0
 12 13  1  0  0  0
 13 14  1  0  0  0
 14 15  1  0  0  0
 15 16  1  0  0  0
 16 17  1  0  0  0
 17 18  1  0  0  0
 18 19  1  0  0  0
M  CHG 1  28  -1
M  END
> <minimizedAffinity>
-7.94573

> <CNNscore>
0.7304422259

> <CNNaffinity>
6.2409763336

> <CNN_VS>
4.5586724281

> <CNNaffinity_variance>
0.4717040062

$$$$
/media/chris/experiments/cd1a-new-docking/inputs/ligands/4x6e_ligand.pdb


 37 36  0  0  0  0  0  0  0  0999 V2000
  -42.5623   60.4030   67.6239 O   0  0  0  0  0  0  0  0  0  0  0  0
  -42.5559   59.5337   66.7880 C   0  0  0  0  0  0  0  0  0  0  0  0
  -43.7352   58.6950   66.4009 C   0  0  0  0  0  0  0  0  0  0  0  0
  -44.6401   59.3695   65.3768 C   0  0  0  0  0  0  0  0  0  0  0  0
  -45.8479   58.5431   64.9695 C   0  0  0  0  0  0  0  0  0  0  0  0
  -46.0983   57.3511   65.8765 C   0  0  0  0  0  0  0  0  0  0  0  0
  -47.5489   57.2325   66.3113 C   0  0  0  0  0  0  0  0  0  0  0  0
  -48.3398   58.4867   66.0130 C   0  0  0  0  0  0  0  0  0  0  0  0
  -49.4874   58.2977   65.0419 C   0  0  0  0  0  0  0  0  0  0  0  0
  -50.3743   59.4769   64.9194 C   0  0  0  0  0  0  0  0  0  0  0  0
  -51.0693   59.8173   63.8536 C   0  0  0  0  0  0  0  0  0  0  0  0
  -51.1531   59.0800   62.5567 C   0  0  0  0  0  0  0  0  0  0  0  0
  -50.1892   59.6927   61.5393 C   0  0  0  0  0  0  0  0  0  0  0  0
  -49.9377   58.8561   60.2934 C   0  0  0  0  0  0  0  0  0  0  0  0
  -49.9148   57.3497   60.5229 C   0  0  0  0  0  0  0  0  0  0  0  0
  -49.0141   56.5986   59.5478 C   0  0  0  0  0  0  0  0  0  0  0  0
  -48.5153   57.4525   58.3929 C   0  0  0  0  0  0  0  0  0  0  0  0
  -48.2057   56.6962   57.1097 C   0  0  0  0  0  0  0  0  0  0  0  0
  -47.0162   55.7955   57.2404 C   0  0  0  0  0  0  0  0  0  0  0  0
  -41.4845   59.1940   66.0654 O   0  0  0  0  0  0  0  0  0  0  0  0
  -40.1809   59.4177   66.6464 C   0  0  0  0  0  0  0  0  0  0  0  0
  -39.1682   59.8387   65.6028 C   0  0  0  0  0  0  0  0  0  0  0  0
  -38.5306   61.0696   65.9701 O   0  0  0  0  0  0  0  0  0  0  0  0
  -38.0341   60.9432   66.7938 H   0  0  0  0  0  0  0  0  0  0  0  0
  -38.1168   58.7824   65.3554 C   0  0  0  0  0  0  0  0  0  0  0  0
  -37.2802   59.1112   64.2199 O   0  0  0  0  0  0  0  0  0  0  0  0
  -37.2080   58.5280   62.7264 P   0  0  0  0  0  0  0  0  0  0  0  0
  -38.0756   57.2721   62.6618 O   0  0  0  0  0  0  0  0  0  0  0  0
  -35.8085   58.1489   62.4329 O   0  0  0  0  0  0  0  0  0  0  0  0
  -35.5020   57.5079   63.0933 H   0  0  0  0  0  0  0  0  0  0  0  0
  -37.7680   59.6161   61.6275 O   0  0  0  0  0  0  0  0  0  0  0  0
  -38.9832   60.4042   61.7508 C   0  0  0  0  0  0  0  0  0  0  0  0
  -39.9619   60.0264   60.6666 C   0  0  0  0  0  0  0  0  0  0  0  0
  -41.2686   59.4029   61.1212 N   0  0  0  0  0  0  0  0  0  0  0  0
  -42.4039   60.3521   60.9085 C   0  0  0  0  0  0  0  0  0  0  0  0
  -41.1658   59.0875   62.5773 C   0  0  0  0  0  0  0  0  0  0  0  0
  -41.5432   58.1394   60.3566 C   0  0  0  0  0  0  0  0  0  0  0  0
 34 33  1  0  0  0
 34 35  1  0  0  0
 34 36  1  0  0  0
 34 37  1  0  0  0
 22 23  1  0  0  0
 22 25  1  0  0  0
 22 21  1  0  0  0
 23 24  1  0  0  0
 27 26  1  0  0  0
 27 28  2  0  0  0
 27 31  1  0  0  0
 27 29  1  0  0  0
 25 26  1  0  0  0
 32 33  1  0  0  0
 32 31  1  0  0  0
 29 30  1  0  0  0
 20 21  1  0  0  0
 20  2  1  0  0  0
  1  2  2  0  0  0
  2  3  1  0  0  0
  3  4  1  0  0  0
  4  5  1  0  0  0
  5  6  1  0  0  0
  6  7  1  0  0  0
  7  8  1  0  0  0
  8  9  1  0  0  0
  9 10  1  0  0  0
 10 11  2  0  0  0
 11 12  1  0  0  0
 12 13  1  0  0  0
 13 14  1  0  0  0
 14 15  1  0  0  0
 15 16  1  0  0  0
 16 17  1  0  0  0
 17 18  1  0  0  0
 18 19  1  0  0  0
M  CHG 1  28  -1
M  END
> <minimizedAffinity>
-7.78882

> <CNNscore>
0.6961594224

> <CNNaffinity>
7.1892042160

> <CNN_VS>
5.0048322678

> <CNNaffinity_variance>
0.3273561299

$$$$
/media/chris/experiments/cd1a-new-docking/inputs/ligands/4x6e_ligand.pdb


 37 36  0  0  0  0  0  0  0  0999 V2000
  -40.5380   58.6964   65.7601 O   0  0  0  0  0  0  0  0  0  0  0  0
  -40.7075   59.8505   66.0664 C   0  0  0  0  0  0  0  0  0  0  0  0
  -42.0229   60.4652   66.4347 C   0  0  0  0  0  0  0  0  0  0  0  0
  -43.2145   59.5752   66.1020 C   0  0  0  0  0  0  0  0  0  0  0  0
  -43.6171   59.5914   64.6373 C   0  0  0  0  0  0  0  0  0  0  0  0
  -45.0587   59.1762   64.4021 C   0  0  0  0  0  0  0  0  0  0  0  0
  -46.0596   60.2085   64.8921 C   0  0  0  0  0  0  0  0  0  0  0  0
  -46.9422   59.6704   65.9962 C   0  0  0  0  0  0  0  0  0  0  0  0
  -48.3970   60.0835   65.9044 C   0  0  0  0  0  0  0  0  0  0  0  0
  -49.3403   58.9483   65.7885 C   0  0  0  0  0  0  0  0  0  0  0  0
  -50.4168   58.9085   65.0306 C   0  0  0  0  0  0  0  0  0  0  0  0
  -50.9033   59.9684   64.0964 C   0  0  0  0  0  0  0  0  0  0  0  0
  -51.1777   59.3685   62.7164 C   0  0  0  0  0  0  0  0  0  0  0  0
  -50.2282   58.2597   62.2869 C   0  0  0  0  0  0  0  0  0  0  0  0
  -50.5428   57.6299   60.9353 C   0  0  0  0  0  0  0  0  0  0  0  0
  -49.5904   58.0624   59.8254 C   0  0  0  0  0  0  0  0  0  0  0  0
  -48.9562   56.9016   59.0757 C   0  0  0  0  0  0  0  0  0  0  0  0
  -48.1459   57.2848   57.8464 C   0  0  0  0  0  0  0  0  0  0  0  0
  -47.5531   56.0986   57.1500 C   0  0  0  0  0  0  0  0  0  0  0  0
  -39.7316   60.7607   66.1352 O   0  0  0  0  0  0  0  0  0  0  0  0
  -38.3673   60.2862   66.1535 C   0  0  0  0  0  0  0  0  0  0  0  0
  -37.4775   61.1065   65.2437 C   0  0  0  0  0  0  0  0  0  0  0  0
  -37.4108   62.4706   65.6810 O   0  0  0  0  0  0  0  0  0  0  0  0
  -37.0059   62.5084   66.5616 H   0  0  0  0  0  0  0  0  0  0  0  0
  -36.0795   60.5436   65.1381 C   0  0  0  0  0  0  0  0  0  0  0  0
  -36.0907   59.1108   64.9274 O   0  0  0  0  0  0  0  0  0  0  0  0
  -36.3760   58.2121   63.6287 P   0  0  0  0  0  0  0  0  0  0  0  0
  -35.2888   57.1423   63.5401 O   0  0  0  0  0  0  0  0  0  0  0  0
  -36.2886   59.0725   62.4285 O   0  0  0  0  0  0  0  0  0  0  0  0
  -35.4168   59.4969   62.3979 H   0  0  0  0  0  0  0  0  0  0  0  0
  -37.8419   57.4717   63.7192 O   0  0  0  0  0  0  0  0  0  0  0  0
  -38.6998   57.1384   62.5941 C   0  0  0  0  0  0  0  0  0  0  0  0
  -39.6846   58.2530   62.3412 C   0  0  0  0  0  0  0  0  0  0  0  0
  -39.9310   58.6225   60.8901 N   0  0  0  0  0  0  0  0  0  0  0  0
  -38.7712   58.2117   60.0408 C   0  0  0  0  0  0  0  0  0  0  0  0
  -40.1007   60.1033   60.7968 C   0  0  0  0  0  0  0  0  0  0  0  0
  -41.1707   57.9462   60.3778 C   0  0  0  0  0  0  0  0  0  0  0  0
 34 33  1  0  0  0
 34 35  1  0  0  0
 34 36  1  0  0  0
 34 37  1  0  0  0
 22 23  1  0  0  0
 22 25  1  0  0  0
 22 21  1  0  0  0
 23 24  1  0  0  0
 27 26  1  0  0  0
 27 28  2  0  0  0
 27 31  1  0  0  0
 27 29  1  0  0  0
 25 26  1  0  0  0
 32 33  1  0  0  0
 32 31  1  0  0  0
 29 30  1  0  0  0
 20 21  1  0  0  0
 20  2  1  0  0  0
  1  2  2  0  0  0
  2  3  1  0  0  0
  3  4  1  0  0  0
  4  5  1  0  0  0
  5  6  1  0  0  0
  6  7  1  0  0  0
  7  8  1  0  0  0
  8  9  1  0  0  0
  9 10  1  0  0  0
 10 11  2  0  0  0
 11 12  1  0  0  0
 12 13  1  0  0  0
 13 14  1  0  0  0
 14 15  1  0  0  0
 15 16  1  0  0  0
 16 17  1  0  0  0
 17 18  1  0  0  0
 18 19  1  0  0  0
M  CHG 1  28  -1
M  END
> <minimizedAffinity>
-8.18571

> <CNNscore>
0.6824461222

> <CNNaffinity>
6.9766244888

> <CNN_VS>
4.7611703873

> <CNNaffinity_variance>
0.4276116490

$$$$
/media/chris/experiments/cd1a-new-docking/inputs/ligands/4x6e_ligand.pdb


 37 36  0  0  0  0  0  0  0  0999 V2000
  -38.8888   57.9850   60.2802 O   0  0  0  0  0  0  0  0  0  0  0  0
  -39.1373   57.4640   61.3392 C   0  0  0  0  0  0  0  0  0  0  0  0
  -40.4996   57.0457   61.8008 C   0  0  0  0  0  0  0  0  0  0  0  0
  -41.6165   57.5181   60.8777 C   0  0  0  0  0  0  0  0  0  0  0  0
  -42.3052   58.7936   61.3318 C   0  0  0  0  0  0  0  0  0  0  0  0
  -42.4320   58.9077   62.8408 C   0  0  0  0  0  0  0  0  0  0  0  0
  -43.7365   59.5514   63.2782 C   0  0  0  0  0  0  0  0  0  0  0  0
  -44.8088   58.5268   63.5747 C   0  0  0  0  0  0  0  0  0  0  0  0
  -45.7575   58.9061   64.6935 C   0  0  0  0  0  0  0  0  0  0  0  0
  -46.7381   59.9521   64.3242 C   0  0  0  0  0  0  0  0  0  0  0  0
  -48.0112   59.7587   64.0472 C   0  0  0  0  0  0  0  0  0  0  0  0
  -48.7564   58.4641   64.0819 C   0  0  0  0  0  0  0  0  0  0  0  0
  -50.2631   58.7222   64.0281 C   0  0  0  0  0  0  0  0  0  0  0  0
  -50.8152   59.0775   62.6554 C   0  0  0  0  0  0  0  0  0  0  0  0
  -50.7371   57.9611   61.6210 C   0  0  0  0  0  0  0  0  0  0  0  0
  -49.8656   58.3055   60.4176 C   0  0  0  0  0  0  0  0  0  0  0  0
  -49.3801   57.0893   59.6451 C   0  0  0  0  0  0  0  0  0  0  0  0
  -48.6085   57.3931   58.3696 C   0  0  0  0  0  0  0  0  0  0  0  0
  -47.8026   56.2262   57.8878 C   0  0  0  0  0  0  0  0  0  0  0  0
  -38.2198   57.1681   62.2646 O   0  0  0  0  0  0  0  0  0  0  0  0
  -37.0538   58.0163   62.3532 C   0  0  0  0  0  0  0  0  0  0  0  0
  -36.2165   57.6904   63.5717 C   0  0  0  0  0  0  0  0  0  0  0  0
  -34.8886   57.3010   63.1956 O   0  0  0  0  0  0  0  0  0  0  0  0
  -34.4468   58.0431   62.7541 H   0  0  0  0  0  0  0  0  0  0  0  0
  -36.1451   58.8389   64.5507 C   0  0  0  0  0  0  0  0  0  0  0  0
  -37.4319   59.4809   64.7219 O   0  0  0  0  0  0  0  0  0  0  0  0
  -37.8748   61.0234   64.7465 P   0  0  0  0  0  0  0  0  0  0  0  0
  -38.0723   61.4402   66.2030 O   0  0  0  0  0  0  0  0  0  0  0  0
  -39.1674   61.1565   64.0395 O   0  0  0  0  0  0  0  0  0  0  0  0
  -39.8251   60.5782   64.4566 H   0  0  0  0  0  0  0  0  0  0  0  0
  -36.7290   61.9896   64.0694 O   0  0  0  0  0  0  0  0  0  0  0  0
  -36.4889   63.3855   64.3961 C   0  0  0  0  0  0  0  0  0  0  0  0
  -35.0178   63.6197   64.6347 C   0  0  0  0  0  0  0  0  0  0  0  0
  -34.5842   63.7860   66.0794 N   0  0  0  0  0  0  0  0  0  0  0  0
  -33.9294   62.5375   66.5769 C   0  0  0  0  0  0  0  0  0  0  0  0
  -35.7926   64.0652   66.9113 C   0  0  0  0  0  0  0  0  0  0  0  0
  -33.6156   64.9267   66.2104 C   0  0  0  0  0  0  0  0  0  0  0  0
 34 33  1  0  0  0
 34 35  1  0  0  0
 34 36  1  0  0  0
 34 37  1  0  0  0
 22 23  1  0  0  0
 22 25  1  0  0  0
 22 21  1  0  0  0
 23 24  1  0  0  0
 27 26  1  0  0  0
 27 28  2  0  0  0
 27 31  1  0  0  0
 27 29  1  0  0  0
 25 26  1  0  0  0
 32 33  1  0  0  0
 32 31  1  0  0  0
 29 30  1  0  0  0
 20 21  1  0  0  0
 20  2  1  0  0  0
  1  2  2  0  0  0
  2  3  1  0  0  0
  3  4  1  0  0  0
  4  5  1  0  0  0
  5  6  1  0  0  0
  6  7  1  0  0  0
  7  8  1  0  0  0
  8  9  1  0  0  0
  9 10  1  0  0  0
 10 11  2  0  0  0
 11 12  1  0  0  0
 12 13  1  0  0  0
 13 14  1  0  0  0
 14 15  1  0  0  0
 15 16  1  0  0  0
 16 17  1  0  0  0
 17 18  1  0  0  0
 18 19  1  0  0  0
M  CHG 1  28  -1
M  END
> <minimizedAffinity>
-7.78999

> <CNNscore>
0.6300818324

> <CNNaffinity>
6.6226301193

> <CNN_VS>
4.1727991104

> <CNNaffinity_variance>
0.4924796224

$$$$
/media/chris/experiments/cd1a-new-docking/inputs/ligands/4x6e_ligand.pdb


 37 36  0  0  0  0  0  0  0  0999 V2000
  -42.8298   60.0299   67.7863 O   0  0  0  0  0  0  0  0  0  0  0  0
  -43.2540   59.4265   66.8320 C   0  0  0  0  0  0  0  0  0  0  0  0
  -44.7025   59.2079   66.5189 C   0  0  0  0  0  0  0  0  0  0  0  0
  -44.9254   58.4072   65.2415 C   0  0  0  0  0  0  0  0  0  0  0  0
  -46.1274   58.8525   64.4264 C   0  0  0  0  0  0  0  0  0  0  0  0
  -46.2939   60.3609   64.3696 C   0  0  0  0  0  0  0  0  0  0  0  0
  -47.7427   60.8015   64.4892 C   0  0  0  0  0  0  0  0  0  0  0  0
  -48.4415   60.1561   65.6651 C   0  0  0  0  0  0  0  0  0  0  0  0
  -49.5271   59.1666   65.2934 C   0  0  0  0  0  0  0  0  0  0  0  0
  -50.7985   59.7966   64.8708 C   0  0  0  0  0  0  0  0  0  0  0  0
  -51.1770   60.0232   63.6297 C   0  0  0  0  0  0  0  0  0  0  0  0
  -50.4393   59.6644   62.3808 C   0  0  0  0  0  0  0  0  0  0  0  0
  -50.4710   58.1502   62.1671 C   0  0  0  0  0  0  0  0  0  0  0  0
  -50.6270   57.6987   60.7223 C   0  0  0  0  0  0  0  0  0  0  0  0
  -49.6876   56.5785   60.2925 C   0  0  0  0  0  0  0  0  0  0  0  0
  -48.8160   56.9404   59.0944 C   0  0  0  0  0  0  0  0  0  0  0  0
  -47.6688   55.9713   58.8567 C   0  0  0  0  0  0  0  0  0  0  0  0
  -47.1027   55.9658   57.4446 C   0  0  0  0  0  0  0  0  0  0  0  0
  -47.3803   57.2376   56.7038 C   0  0  0  0  0  0  0  0  0  0  0  0
  -42.4842   58.8669   65.8941 O   0  0  0  0  0  0  0  0  0  0  0  0
  -41.0535   59.0285   66.0115 C   0  0  0  0  0  0  0  0  0  0  0  0
  -40.5895   60.3454   65.4263 C   0  0  0  0  0  0  0  0  0  0  0  0
  -39.5775   60.9458   66.2460 O   0  0  0  0  0  0  0  0  0  0  0  0
  -38.7971   60.3701   66.2699 H   0  0  0  0  0  0  0  0  0  0  0  0
  -40.0728   60.2026   64.0138 C   0  0  0  0  0  0  0  0  0  0  0  0
  -39.2869   61.3499   63.6095 O   0  0  0  0  0  0  0  0  0  0  0  0
  -37.7037   61.5994   63.5257 P   0  0  0  0  0  0  0  0  0  0  0  0
  -37.4413   62.6397   62.4380 O   0  0  0  0  0  0  0  0  0  0  0  0
  -37.0446   60.3338   63.1353 O   0  0  0  0  0  0  0  0  0  0  0  0
  -37.4133   60.0237   62.2933 H   0  0  0  0  0  0  0  0  0  0  0  0
  -37.1064   62.1610   64.9514 O   0  0  0  0  0  0  0  0  0  0  0  0
  -36.2727   63.3395   65.1217 C   0  0  0  0  0  0  0  0  0  0  0  0
  -34.8923   63.0862   64.5683 C   0  0  0  0  0  0  0  0  0  0  0  0
  -33.7263   63.5771   65.4062 N   0  0  0  0  0  0  0  0  0  0  0  0
  -33.8573   65.0411   65.6796 C   0  0  0  0  0  0  0  0  0  0  0  0
  -32.4607   63.3355   64.6511 C   0  0  0  0  0  0  0  0  0  0  0  0
  -33.6726   62.8423   66.7154 C   0  0  0  0  0  0  0  0  0  0  0  0
 34 33  1  0  0  0
 34 35  1  0  0  0
 34 36  1  0  0  0
 34 37  1  0  0  0
 22 23  1  0  0  0
 22 25  1  0  0  0
 22 21  1  0  0  0
 23 24  1  0  0  0
 27 26  1  0  0  0
 27 28  2  0  0  0
 27 31  1  0  0  0
 27 29  1  0  0  0
 25 26  1  0  0  0
 32 33  1  0  0  0
 32 31  1  0  0  0
 29 30  1  0  0  0
 20 21  1  0  0  0
 20  2  1  0  0  0
  1  2  2  0  0  0
  2  3  1  0  0  0
  3  4  1  0  0  0
  4  5  1  0  0  0
  5  6  1  0  0  0
  6  7  1  0  0  0
  7  8  1  0  0  0
  8  9  1  0  0  0
  9 10  1  0  0  0
 10 11  2  0  0  0
 11 12  1  0  0  0
 12 13  1  0  0  0
 13 14  1  0  0  0
 14 15  1  0  0  0
 15 16  1  0  0  0
 16 17  1  0  0  0
 17 18  1  0  0  0
 18 19  1  0  0  0
M  CHG 1  28  -1
M  END
> <minimizedAffinity>
-8.17521

> <CNNscore>
0.6248633265

> <CNNaffinity>
6.2126207352

> <CNN_VS>
3.8820388317

> <CNNaffinity_variance>
0.0687832385

$$$$
/media/chris/experiments/cd1a-new-docking/inputs/ligands/4x6e_ligand.pdb


 37 36  0  0  0  0  0  0  0  0999 V2000
  -40.3077   58.7825   65.5267 O   0  0  0  0  0  0  0  0  0  0  0  0
  -40.4553   59.8975   65.9620 C   0  0  0  0  0  0  0  0  0  0  0  0
  -41.7506   60.4754   66.4435 C   0  0  0  0  0  0  0  0  0  0  0  0
  -42.5649   59.5014   67.2867 C   0  0  0  0  0  0  0  0  0  0  0  0
  -43.7510   58.8881   66.5625 C   0  0  0  0  0  0  0  0  0  0  0  0
  -44.3012   59.7660   65.4522 C   0  0  0  0  0  0  0  0  0  0  0  0
  -45.8195   59.8106   65.4302 C   0  0  0  0  0  0  0  0  0  0  0  0
  -46.4347   58.8266   66.4001 C   0  0  0  0  0  0  0  0  0  0  0  0
  -47.8430   58.3888   66.0527 C   0  0  0  0  0  0  0  0  0  0  0  0
  -48.8533   59.4658   66.1598 C   0  0  0  0  0  0  0  0  0  0  0  0
  -49.9202   59.6069   65.4004 C   0  0  0  0  0  0  0  0  0  0  0  0
  -50.3712   58.7026   64.2997 C   0  0  0  0  0  0  0  0  0  0  0  0
  -49.6589   59.0647   62.9955 C   0  0  0  0  0  0  0  0  0  0  0  0
  -50.5348   59.0605   61.7512 C   0  0  0  0  0  0  0  0  0  0  0  0
  -50.9340   57.6782   61.2491 C   0  0  0  0  0  0  0  0  0  0  0  0
  -49.8645   57.0091   60.3919 C   0  0  0  0  0  0  0  0  0  0  0  0
  -49.4508   57.8279   59.1794 C   0  0  0  0  0  0  0  0  0  0  0  0
  -48.4424   57.1607   58.2561 C   0  0  0  0  0  0  0  0  0  0  0  0
  -47.7474   56.0000   58.8988 C   0  0  0  0  0  0  0  0  0  0  0  0
  -39.4692   60.7899   66.0921 O   0  0  0  0  0  0  0  0  0  0  0  0
  -38.1223   60.2893   66.2406 C   0  0  0  0  0  0  0  0  0  0  0  0
  -37.1012   61.4058   66.1837 C   0  0  0  0  0  0  0  0  0  0  0  0
  -36.7651   61.8646   67.5001 O   0  0  0  0  0  0  0  0  0  0  0  0
  -36.3499   61.1430   67.9978 H   0  0  0  0  0  0  0  0  0  0  0  0
  -35.8408   61.0026   65.4549 C   0  0  0  0  0  0  0  0  0  0  0  0
  -35.6318   61.7961   64.2615 O   0  0  0  0  0  0  0  0  0  0  0  0
  -36.5312   62.9072   63.5319 P   0  0  0  0  0  0  0  0  0  0  0  0
  -35.6037   63.8284   62.7412 O   0  0  0  0  0  0  0  0  0  0  0  0
  -37.2231   63.7096   64.5644 O   0  0  0  0  0  0  0  0  0  0  0  0
  -36.5674   64.1016   65.1623 H   0  0  0  0  0  0  0  0  0  0  0  0
  -37.6091   62.2233   62.4949 O   0  0  0  0  0  0  0  0  0  0  0  0
  -38.3969   61.0285   62.7492 C   0  0  0  0  0  0  0  0  0  0  0  0
  -38.7476   60.3485   61.4490 C   0  0  0  0  0  0  0  0  0  0  0  0
  -38.5983   58.8388   61.4126 N   0  0  0  0  0  0  0  0  0  0  0  0
  -39.7776   58.1802   62.0535 C   0  0  0  0  0  0  0  0  0  0  0  0
  -37.3641   58.4630   62.1648 C   0  0  0  0  0  0  0  0  0  0  0  0
  -38.4839   58.3550   59.9951 C   0  0  0  0  0  0  0  0  0  0  0  0
 34 33  1  0  0  0
 34 35  1  0  0  0
 34 36  1  0  0  0
 34 37  1  0  0  0
 22 23  1  0  0  0
 22 25  1  0  0  0
 22 21  1  0  0  0
 23 24  1  0  0  0
 27 26  1  0  0  0
 27 28  2  0  0  0
 27 31  1  0  0  0
 27 29  1  0  0  0
 25 26  1  0  0  0
 32 33  1  0  0  0
 32 31  1  0  0  0
 29 30  1  0  0  0
 20 21  1  0  0  0
 20  2  1  0  0  0
  1  2  2  0  0  0
  2  3  1  0  0  0
  3  4  1  0  0  0
  4  5  1  0  0  0
  5  6  1  0  0  0
  6  7  1  0  0  0
  7  8  1  0  0  0
  8  9  1  0  0  0
  9 10  1  0  0  0
 10 11  2  0  0  0
 11 12  1  0  0  0
 12 13  1  0  0  0
 13 14  1  0  0  0
 14 15  1  0  0  0
 15 16  1  0  0  0
 16 17  1  0  0  0
 17 18  1  0  0  0
 18 19  1  0  0  0
M  CHG 1  28  -1
M  END
> <minimizedAffinity>
-8.17812

> <CNNscore>
0.6114126444

> <CNNaffinity>
6.4730057716

> <CNN_VS>
3.9576776028

> <CNNaffinity_variance>
0.0250310842

$$$$
/media/chris/experiments/cd1a-new-docking/inputs/ligands/4x6e_ligand.pdb


 37 36  0  0  0  0  0  0  0  0999 V2000
  -40.3301   56.7134   63.0594 O   0  0  0  0  0  0  0  0  0  0  0  0
  -40.5427   57.2850   62.0188 C   0  0  0  0  0  0  0  0  0  0  0  0
  -41.8979   57.5735   61.4498 C   0  0  0  0  0  0  0  0  0  0  0  0
  -42.5914   58.7528   62.1214 C   0  0  0  0  0  0  0  0  0  0  0  0
  -43.6186   58.3599   63.1691 C   0  0  0  0  0  0  0  0  0  0  0  0
  -44.5564   59.4918   63.5505 C   0  0  0  0  0  0  0  0  0  0  0  0
  -45.4521   59.1472   64.7280 C   0  0  0  0  0  0  0  0  0  0  0  0
  -46.6917   60.0125   64.7761 C   0  0  0  0  0  0  0  0  0  0  0  0
  -47.6276   59.7174   65.9305 C   0  0  0  0  0  0  0  0  0  0  0  0
  -48.4491   58.4997   65.7449 C   0  0  0  0  0  0  0  0  0  0  0  0
  -49.6736   58.4562   65.2618 C   0  0  0  0  0  0  0  0  0  0  0  0
  -50.4874   59.6042   64.7591 C   0  0  0  0  0  0  0  0  0  0  0  0
  -50.4517   59.6456   63.2305 C   0  0  0  0  0  0  0  0  0  0  0  0
  -50.8197   58.3436   62.5342 C   0  0  0  0  0  0  0  0  0  0  0  0
  -49.7629   57.8031   61.5785 C   0  0  0  0  0  0  0  0  0  0  0  0
  -49.8191   58.4313   60.1898 C   0  0  0  0  0  0  0  0  0  0  0  0
  -49.2825   57.5311   59.0883 C   0  0  0  0  0  0  0  0  0  0  0  0
  -48.3303   56.4369   59.5472 C   0  0  0  0  0  0  0  0  0  0  0  0
  -47.4857   55.8989   58.4334 C   0  0  0  0  0  0  0  0  0  0  0  0
  -39.5878   57.7624   61.2152 O   0  0  0  0  0  0  0  0  0  0  0  0
  -38.5394   58.5570   61.8121 C   0  0  0  0  0  0  0  0  0  0  0  0
  -38.8286   60.0389   61.7010 C   0  0  0  0  0  0  0  0  0  0  0  0
  -39.5628   60.3326   60.5047 O   0  0  0  0  0  0  0  0  0  0  0  0
  -40.4253   59.8901   60.5379 H   0  0  0  0  0  0  0  0  0  0  0  0
  -39.5809   60.5744   62.8967 C   0  0  0  0  0  0  0  0  0  0  0  0
  -38.6912   61.1821   63.8644 O   0  0  0  0  0  0  0  0  0  0  0  0
  -37.9466   60.6005   65.1618 P   0  0  0  0  0  0  0  0  0  0  0  0
  -38.5367   59.2265   65.4750 O   0  0  0  0  0  0  0  0  0  0  0  0
  -38.2152   61.4998   66.3052 O   0  0  0  0  0  0  0  0  0  0  0  0
  -39.1731   61.5796   66.4357 H   0  0  0  0  0  0  0  0  0  0  0  0
  -36.3302   60.4374   64.9056 O   0  0  0  0  0  0  0  0  0  0  0  0
  -35.2787   61.1518   65.6104 C   0  0  0  0  0  0  0  0  0  0  0  0
  -34.7039   62.2345   64.7309 C   0  0  0  0  0  0  0  0  0  0  0  0
  -35.1569   63.6536   65.0203 N   0  0  0  0  0  0  0  0  0  0  0  0
  -34.0614   64.6250   64.7182 C   0  0  0  0  0  0  0  0  0  0  0  0
  -35.5110   63.7558   66.4675 C   0  0  0  0  0  0  0  0  0  0  0  0
  -36.3578   64.0029   64.1883 C   0  0  0  0  0  0  0  0  0  0  0  0
 34 33  1  0  0  0
 34 35  1  0  0  0
 34 36  1  0  0  0
 34 37  1  0  0  0
 22 23  1  0  0  0
 22 25  1  0  0  0
 22 21  1  0  0  0
 23 24  1  0  0  0
 27 26  1  0  0  0
 27 28  2  0  0  0
 27 31  1  0  0  0
 27 29  1  0  0  0
 25 26  1  0  0  0
 32 33  1  0  0  0
 32 31  1  0  0  0
 29 30  1  0  0  0
 20 21  1  0  0  0
 20  2  1  0  0  0
  1  2  2  0  0  0
  2  3  1  0  0  0
  3  4  1  0  0  0
  4  5  1  0  0  0
  5  6  1  0  0  0
  6  7  1  0  0  0
  7  8  1  0  0  0
  8  9  1  0  0  0
  9 10  1  0  0  0
 10 11  2  0  0  0
 11 12  1  0  0  0
 12 13  1  0  0  0
 13 14  1  0  0  0
 14 15  1  0  0  0
 15 16  1  0  0  0
 16 17  1  0  0  0
 17 18  1  0  0  0
 18 19  1  0  0  0
M  CHG 1  28  -1
M  END
> <minimizedAffinity>
-7.75241

> <CNNscore>
0.5812519193

> <CNNaffinity>
6.5379333496

> <CNN_VS>
3.8001863956

> <CNNaffinity_variance>
0.2223165482

$$$$
/media/chris/experiments/cd1a-new-docking/inputs/ligands/4x6e_ligand.pdb


 37 36  0  0  0  0  0  0  0  0999 V2000
  -40.8579   57.5009   60.9129 O   0  0  0  0  0  0  0  0  0  0  0  0
  -41.0689   58.0600   61.9605 C   0  0  0  0  0  0  0  0  0  0  0  0
  -42.4017   58.5676   62.4188 C   0  0  0  0  0  0  0  0  0  0  0  0
  -42.7114   59.9739   61.9199 C   0  0  0  0  0  0  0  0  0  0  0  0
  -43.6784   60.7497   62.7977 C   0  0  0  0  0  0  0  0  0  0  0  0
  -44.0844   60.0031   64.0562 C   0  0  0  0  0  0  0  0  0  0  0  0
  -45.5545   59.6211   64.0698 C   0  0  0  0  0  0  0  0  0  0  0  0
  -46.3557   60.4642   65.0367 C   0  0  0  0  0  0  0  0  0  0  0  0
  -47.7893   60.0152   65.2335 C   0  0  0  0  0  0  0  0  0  0  0  0
  -48.7642   60.7107   64.3628 C   0  0  0  0  0  0  0  0  0  0  0  0
  -49.7039   60.1385   63.6388 C   0  0  0  0  0  0  0  0  0  0  0  0
  -50.0237   58.6808   63.5630 C   0  0  0  0  0  0  0  0  0  0  0  0
  -50.8405   58.3856   62.3040 C   0  0  0  0  0  0  0  0  0  0  0  0
  -50.1277   58.6536   60.9866 C   0  0  0  0  0  0  0  0  0  0  0  0
  -50.1622   57.5016   59.9896 C   0  0  0  0  0  0  0  0  0  0  0  0
  -48.9923   57.5075   59.0111 C   0  0  0  0  0  0  0  0  0  0  0  0
  -48.1816   56.2213   59.0180 C   0  0  0  0  0  0  0  0  0  0  0  0
  -47.4142   55.9281   57.7375 C   0  0  0  0  0  0  0  0  0  0  0  0
  -47.4245   57.0790   56.7791 C   0  0  0  0  0  0  0  0  0  0  0  0
  -40.1346   58.3016   62.8847 O   0  0  0  0  0  0  0  0  0  0  0  0
  -38.7502   58.2328   62.4779 C   0  0  0  0  0  0  0  0  0  0  0  0
  -37.9557   59.4129   62.9959 C   0  0  0  0  0  0  0  0  0  0  0  0
  -36.5582   59.2568   62.7148 O   0  0  0  0  0  0  0  0  0  0  0  0
  -36.4216   59.2389   61.7547 H   0  0  0  0  0  0  0  0  0  0  0  0
  -38.4378   60.7291   62.4324 C   0  0  0  0  0  0  0  0  0  0  0  0
  -38.3331   61.8002   63.4015 O   0  0  0  0  0  0  0  0  0  0  0  0
  -37.0713   62.5193   64.0847 P   0  0  0  0  0  0  0  0  0  0  0  0
  -37.2965   62.5445   65.5956 O   0  0  0  0  0  0  0  0  0  0  0  0
  -36.9990   63.9138   63.5963 O   0  0  0  0  0  0  0  0  0  0  0  0
  -37.8328   64.3689   63.7930 H   0  0  0  0  0  0  0  0  0  0  0  0
  -35.6743   61.7102   63.7704 O   0  0  0  0  0  0  0  0  0  0  0  0
  -34.4294   61.8392   64.5096 C   0  0  0  0  0  0  0  0  0  0  0  0
  -33.5210   62.8348   63.8316 C   0  0  0  0  0  0  0  0  0  0  0  0
  -33.2129   64.1048   64.6028 N   0  0  0  0  0  0  0  0  0  0  0  0
  -33.7754   65.2963   63.8962 C   0  0  0  0  0  0  0  0  0  0  0  0
  -31.7304   64.2548   64.7028 C   0  0  0  0  0  0  0  0  0  0  0  0
  -33.8006   64.0379   65.9836 C   0  0  0  0  0  0  0  0  0  0  0  0
 34 33  1  0  0  0
 34 35  1  0  0  0
 34 36  1  0  0  0
 34 37  1  0  0  0
 22 23  1  0  0  0
 22 25  1  0  0  0
 22 21  1  0  0  0
 23 24  1  0  0  0
 27 26  1  0  0  0
 27 28  2  0  0  0
 27 31  1  0  0  0
 27 29  1  0  0  0
 25 26  1  0  0  0
 32 33  1  0  0  0
 32 31  1  0  0  0
 29 30  1  0  0  0
 20 21  1  0  0  0
 20  2  1  0  0  0
  1  2  2  0  0  0
  2  3  1  0  0  0
  3  4  1  0  0  0
  4  5  1  0  0  0
  5  6  1  0  0  0
  6  7  1  0  0  0
  7  8  1  0  0  0
  8  9  1  0  0  0
  9 10  1  0  0  0
 10 11  2  0  0  0
 11 12  1  0  0  0
 12 13  1  0  0  0
 13 14  1  0  0  0
 14 15  1  0  0  0
 15 16  1  0  0  0
 16 17  1  0  0  0
 17 18  1  0  0  0
 18 19  1  0  0  0
M  CHG 1  28  -1
M  END
> <minimizedAffinity>
-7.89396

> <CNNscore>
0.5803837776

> <CNNaffinity>
6.4257507324

> <CNN_VS>
3.7294015884

> <CNNaffinity_variance>
0.4892548025

$$$$
/media/chris/experiments/cd1a-new-docking/inputs/ligands/4x6e_ligand.pdb


 37 36  0  0  0  0  0  0  0  0999 V2000
  -41.6286   56.9314   63.3494 O   0  0  0  0  0  0  0  0  0  0  0  0
  -42.1731   57.9884   63.5513 C   0  0  0  0  0  0  0  0  0  0  0  0
  -43.5515   58.3547   63.0934 C   0  0  0  0  0  0  0  0  0  0  0  0
  -43.9808   59.7475   63.5386 C   0  0  0  0  0  0  0  0  0  0  0  0
  -44.9202   59.7604   64.7323 C   0  0  0  0  0  0  0  0  0  0  0  0
  -46.2068   58.9887   64.4972 C   0  0  0  0  0  0  0  0  0  0  0  0
  -46.8482   58.5009   65.7849 C   0  0  0  0  0  0  0  0  0  0  0  0
  -48.2921   58.9349   65.9047 C   0  0  0  0  0  0  0  0  0  0  0  0
  -49.1860   58.4879   64.7658 C   0  0  0  0  0  0  0  0  0  0  0  0
  -50.4308   59.2780   64.6303 C   0  0  0  0  0  0  0  0  0  0  0  0
  -50.9734   59.6829   63.5005 C   0  0  0  0  0  0  0  0  0  0  0  0
  -50.4867   59.4068   62.1150 C   0  0  0  0  0  0  0  0  0  0  0  0
  -51.0273   58.0624   61.6252 C   0  0  0  0  0  0  0  0  0  0  0  0
  -50.4837   57.5904   60.2845 C   0  0  0  0  0  0  0  0  0  0  0  0
  -49.5444   56.3925   60.3559 C   0  0  0  0  0  0  0  0  0  0  0  0
  -48.3319   56.5137   59.4387 C   0  0  0  0  0  0  0  0  0  0  0  0
  -48.5610   57.4163   58.2368 C   0  0  0  0  0  0  0  0  0  0  0  0
  -47.7754   57.0488   56.9869 C   0  0  0  0  0  0  0  0  0  0  0  0
  -47.0859   55.7243   57.1042 C   0  0  0  0  0  0  0  0  0  0  0  0
  -41.6242   58.9981   64.2330 O   0  0  0  0  0  0  0  0  0  0  0  0
  -40.9746   58.6910   65.4862 C   0  0  0  0  0  0  0  0  0  0  0  0
  -39.4693   58.8141   65.3807 C   0  0  0  0  0  0  0  0  0  0  0  0
  -39.0103   58.4260   64.0788 O   0  0  0  0  0  0  0  0  0  0  0  0
  -39.3785   59.0281   63.4134 H   0  0  0  0  0  0  0  0  0  0  0  0
  -38.9781   60.2085   65.6918 C   0  0  0  0  0  0  0  0  0  0  0  0
  -38.9568   61.0475   64.5115 O   0  0  0  0  0  0  0  0  0  0  0  0
  -37.7717   61.4972   63.5271 P   0  0  0  0  0  0  0  0  0  0  0  0
  -38.3084   61.4842   62.0967 O   0  0  0  0  0  0  0  0  0  0  0  0
  -36.6733   60.5112   63.6265 O   0  0  0  0  0  0  0  0  0  0  0  0
  -37.0122   59.6273   63.4146 H   0  0  0  0  0  0  0  0  0  0  0  0
  -37.2387   63.0127   63.8795 O   0  0  0  0  0  0  0  0  0  0  0  0
  -36.5471   63.4126   65.0939 C   0  0  0  0  0  0  0  0  0  0  0  0
  -35.1363   63.8406   64.7738 C   0  0  0  0  0  0  0  0  0  0  0  0
  -34.0375   62.8438   65.0928 N   0  0  0  0  0  0  0  0  0  0  0  0
  -34.5504   61.7709   65.9989 C   0  0  0  0  0  0  0  0  0  0  0  0
  -32.9227   63.5649   65.7766 C   0  0  0  0  0  0  0  0  0  0  0  0
  -33.5208   62.2088   63.8333 C   0  0  0  0  0  0  0  0  0  0  0  0
 34 33  1  0  0  0
 34 35  1  0  0  0
 34 36  1  0  0  0
 34 37  1  0  0  0
 22 23  1  0  0  0
 22 25  1  0  0  0
 22 21  1  0  0  0
 23 24  1  0  0  0
 27 26  1  0  0  0
 27 28  2  0  0  0
 27 31  1  0  0  0
 27 29  1  0  0  0
 25 26  1  0  0  0
 32 33  1  0  0  0
 32 31  1  0  0  0
 29 30  1  0  0  0
 20 21  1  0  0  0
 20  2  1  0  0  0
  1  2  2  0  0  0
  2  3  1  0  0  0
  3  4  1  0  0  0
  4  5  1  0  0  0
  5  6  1  0  0  0
  6  7  1  0  0  0
  7  8  1  0  0  0
  8  9  1  0  0  0
  9 10  1  0  0  0
 10 11  2  0  0  0
 11 12  1  0  0  0
 12 13  1  0  0  0
 13 14  1  0  0  0
 14 15  1  0  0  0
 15 16  1  0  0  0
 16 17  1  0  0  0
 17 18  1  0  0  0
 18 19  1  0  0  0
M  CHG 1  28  -1
M  END
> <minimizedAffinity>
-8.05842

> <CNNscore>
0.5157615542

> <CNNaffinity>
6.3489217758

> <CNN_VS>
3.2745296955

> <CNNaffinity_variance>
0.3709097505

$$$$
