/media/chris/experiments/cd1a-new-docking/inputs/ligands/4x6e_ligand.pdb


 37 36  0  0  0  0  0  0  0  0999 V2000
  -41.8885   57.6749   65.2607 O   0  0  0  0  0  0  0  0  0  0  0  0
  -42.7788   57.9306   64.4883 C   0  0  0  0  0  0  0  0  0  0  0  0
  -44.2408   57.7524   64.7614 C   0  0  0  0  0  0  0  0  0  0  0  0
  -44.5366   57.3446   66.1997 C   0  0  0  0  0  0  0  0  0  0  0  0
  -45.8811   57.8222   66.7210 C   0  0  0  0  0  0  0  0  0  0  0  0
  -46.2733   59.1974   66.2102 C   0  0  0  0  0  0  0  0  0  0  0  0
  -47.7768   59.3774   66.0889 C   0  0  0  0  0  0  0  0  0  0  0  0
  -48.4899   58.0700   65.8246 C   0  0  0  0  0  0  0  0  0  0  0  0
  -49.9858   58.1934   65.6170 C   0  0  0  0  0  0  0  0  0  0  0  0
  -50.4445   59.5737   65.3403 C   0  0  0  0  0  0  0  0  0  0  0  0
  -50.8770   60.0300   64.1829 C   0  0  0  0  0  0  0  0  0  0  0  0
  -51.0405   59.2600   62.9128 C   0  0  0  0  0  0  0  0  0  0  0  0
  -50.1015   59.8110   61.8383 C   0  0  0  0  0  0  0  0  0  0  0  0
  -50.0749   59.0299   60.5328 C   0  0  0  0  0  0  0  0  0  0  0  0
  -50.4264   57.5525   60.6587 C   0  0  0  0  0  0  0  0  0  0  0  0
  -49.2621   56.6200   60.3407 C   0  0  0  0  0  0  0  0  0  0  0  0
  -48.6347   56.8667   58.9777 C   0  0  0  0  0  0  0  0  0  0  0  0
  -47.5674   55.8658   58.5612 C   0  0  0  0  0  0  0  0  0  0  0  0
  -46.9804   56.1699   57.2172 C   0  0  0  0  0  0  0  0  0  0  0  0
  -42.5903   58.4290   63.2629 O   0  0  0  0  0  0  0  0  0  0  0  0
  -41.3080   58.2081   62.6352 C   0  0  0  0  0  0  0  0  0  0  0  0
  -40.8541   59.4198   61.8493 C   0  0  0  0  0  0  0  0  0  0  0  0
  -41.8035   59.7579   60.8291 O   0  0  0  0  0  0  0  0  0  0  0  0
  -42.6470   60.0027   61.2408 H   0  0  0  0  0  0  0  0  0  0  0  0
  -40.6108   60.6240   62.7285 C   0  0  0  0  0  0  0  0  0  0  0  0
  -39.4796   60.4264   63.6110 O   0  0  0  0  0  0  0  0  0  0  0  0
  -39.3627   60.3076   65.2073 P   0  0  0  0  0  0  0  0  0  0  0  0
  -38.9270   58.8838   65.5494 O   0  0  0  0  0  0  0  0  0  0  0  0
  -40.6972   60.5464   65.7992 O   0  0  0  0  0  0  0  0  0  0  0  0
  -41.3330   59.9143   65.4290 H   0  0  0  0  0  0  0  0  0  0  0  0
  -38.2523   61.3609   65.8095 O   0  0  0  0  0  0  0  0  0  0  0  0
  -36.8958   61.5424   65.3199 C   0  0  0  0  0  0  0  0  0  0  0  0
  -35.9892   61.9770   66.4448 C   0  0  0  0  0  0  0  0  0  0  0  0
  -35.1280   63.1993   66.1864 N   0  0  0  0  0  0  0  0  0  0  0  0
  -33.6810   62.8674   66.3623 C   0  0  0  0  0  0  0  0  0  0  0  0
  -35.5043   64.2637   67.1642 C   0  0  0  0  0  0  0  0  0  0  0  0
  -35.3423   63.7086   64.7895 C   0  0  0  0  0  0  0  0  0  0  0  0
 34 33  1  0  0  0
 34 35  1  0  0  0
 34 36  1  0  0  0
 34 37  1  0  0  0
 22 23  1  0  0  0
 22 25  1  0  0  0
 22 21  1  0  0  0
 23 24  1  0  0  0
 27 26  1  0  0  0
 27 28  2  0  0  0
 27 31  1  0  0  0
 27 29  1  0  0  0
 25 26  1  0  0  0
 32 33  1  0  0  0
 32 31  1  0  0  0
 29 30  1  0  0  0
 20 21  1  0  0  0
 20  2  1  0  0  0
  1  2  2  0  0  0
  2  3  1  0  0  0
  3  4  1  0  0  0
  4  5  1  0  0  0
  5  6  1  0  0  0
  6  7  1  0  0  0
  7  8  1  0  0  0
  8  9  1  0  0  0
  9 10  1  0  0  0
 10 11  2  0  0  0
 11 12  1  0  0  0
 12 13  1  0  0  0
 13 14  1  0  0  0
 14 15  1  0  0  0
 15 16  1  0  0  0
 16 17  1  0  0  0
 17 18  1  0  0  0
 18 19  1  0  0  0
M  CHG 1  28  -1
M  END
> <minimizedAffinity>
-7.89364

> <CNNscore>
0.7669703960

> <CNNaffinity>
6.6870474815

> <CNN_VS>
5.1287674904

> <CNNaffinity_variance>
0.5742124319

$$$$
/media/chris/experiments/cd1a-new-docking/inputs/ligands/4x6e_ligand.pdb


 37 36  0  0  0  0  0  0  0  0999 V2000
  -40.2378   60.8784   66.0700 O   0  0  0  0  0  0  0  0  0  0  0  0
  -40.5045   59.8780   65.4515 C   0  0  0  0  0  0  0  0  0  0  0  0
  -41.3930   58.7724   65.9332 C   0  0  0  0  0  0  0  0  0  0  0  0
  -42.4404   59.2393   66.9369 C   0  0  0  0  0  0  0  0  0  0  0  0
  -43.8354   59.3970   66.3569 C   0  0  0  0  0  0  0  0  0  0  0  0
  -44.7532   58.2266   66.6631 C   0  0  0  0  0  0  0  0  0  0  0  0
  -46.2203   58.6186   66.7008 C   0  0  0  0  0  0  0  0  0  0  0  0
  -47.1313   57.4580   66.3684 C   0  0  0  0  0  0  0  0  0  0  0  0
  -48.3618   57.8267   65.5647 C   0  0  0  0  0  0  0  0  0  0  0  0
  -48.0755   58.6463   64.3653 C   0  0  0  0  0  0  0  0  0  0  0  0
  -48.9587   59.0619   63.4809 C   0  0  0  0  0  0  0  0  0  0  0  0
  -50.4361   58.8397   63.5070 C   0  0  0  0  0  0  0  0  0  0  0  0
  -50.9259   58.3931   62.1286 C   0  0  0  0  0  0  0  0  0  0  0  0
  -49.9683   58.6629   60.9773 C   0  0  0  0  0  0  0  0  0  0  0  0
  -49.9782   57.6141   59.8718 C   0  0  0  0  0  0  0  0  0  0  0  0
  -49.2703   56.3186   60.2549 C   0  0  0  0  0  0  0  0  0  0  0  0
  -48.0078   56.0499   59.4514 C   0  0  0  0  0  0  0  0  0  0  0  0
  -47.9731   56.6742   58.0645 C   0  0  0  0  0  0  0  0  0  0  0  0
  -47.2596   55.8201   57.0620 C   0  0  0  0  0  0  0  0  0  0  0  0
  -40.0502   59.6103   64.2237 O   0  0  0  0  0  0  0  0  0  0  0  0
  -39.1758   58.4719   64.0616 C   0  0  0  0  0  0  0  0  0  0  0  0
  -37.8575   58.6728   64.7783 C   0  0  0  0  0  0  0  0  0  0  0  0
  -37.3679   57.4358   65.3135 O   0  0  0  0  0  0  0  0  0  0  0  0
  -37.1899   56.8174   64.5876 H   0  0  0  0  0  0  0  0  0  0  0  0
  -36.8022   59.2890   63.8901 C   0  0  0  0  0  0  0  0  0  0  0  0
  -36.3262   60.5516   64.4160 O   0  0  0  0  0  0  0  0  0  0  0  0
  -37.0246   61.9880   64.5741 P   0  0  0  0  0  0  0  0  0  0  0  0
  -37.2873   62.2302   66.0595 O   0  0  0  0  0  0  0  0  0  0  0  0
  -38.3223   61.9646   63.8644 O   0  0  0  0  0  0  0  0  0  0  0  0
  -38.8716   61.2477   64.2183 H   0  0  0  0  0  0  0  0  0  0  0  0
  -36.0606   63.1921   64.0031 O   0  0  0  0  0  0  0  0  0  0  0  0
  -34.6649   63.0580   63.6203 C   0  0  0  0  0  0  0  0  0  0  0  0
  -33.7836   63.0836   64.8446 C   0  0  0  0  0  0  0  0  0  0  0  0
  -33.0320   64.3746   65.1108 N   0  0  0  0  0  0  0  0  0  0  0  0
  -31.5921   64.0929   65.3979 C   0  0  0  0  0  0  0  0  0  0  0  0
  -33.6413   65.0457   66.2977 C   0  0  0  0  0  0  0  0  0  0  0  0
  -33.1194   65.2894   63.9225 C   0  0  0  0  0  0  0  0  0  0  0  0
 34 33  1  0  0  0
 34 35  1  0  0  0
 34 36  1  0  0  0
 34 37  1  0  0  0
 22 23  1  0  0  0
 22 25  1  0  0  0
 22 21  1  0  0  0
 23 24  1  0  0  0
 27 26  1  0  0  0
 27 28  2  0  0  0
 27 31  1  0  0  0
 27 29  1  0  0  0
 25 26  1  0  0  0
 32 33  1  0  0  0
 32 31  1  0  0  0
 29 30  1  0  0  0
 20 21  1  0  0  0
 20  2  1  0  0  0
  1  2  2  0  0  0
  2  3  1  0  0  0
  3  4  1  0  0  0
  4  5  1  0  0  0
  5  6  1  0  0  0
  6  7  1  0  0  0
  7  8  1  0  0  0
  8  9  1  0  0  0
  9 10  1  0  0  0
 10 11  2  0  0  0
 11 12  1  0  0  0
 12 13  1  0  0  0
 13 14  1  0  0  0
 14 15  1  0  0  0
 15 16  1  0  0  0
 16 17  1  0  0  0
 17 18  1  0  0  0
 18 19  1  0  0  0
M  CHG 1  28  -1
M  END
> <minimizedAffinity>
-7.81360

> <CNNscore>
0.7643126249

> <CNNaffinity>
6.3650741577

> <CNN_VS>
4.8649063110

> <CNNaffinity_variance>
0.2836630940

$$$$
/media/chris/experiments/cd1a-new-docking/inputs/ligands/4x6e_ligand.pdb


 37 36  0  0  0  0  0  0  0  0999 V2000
  -41.7932   58.8492   66.9711 O   0  0  0  0  0  0  0  0  0  0  0  0
  -42.0195   58.3933   65.8778 C   0  0  0  0  0  0  0  0  0  0  0  0
  -42.8420   57.1723   65.6013 C   0  0  0  0  0  0  0  0  0  0  0  0
  -44.3001   57.4893   65.2914 C   0  0  0  0  0  0  0  0  0  0  0  0
  -45.1718   57.6854   66.5198 C   0  0  0  0  0  0  0  0  0  0  0  0
  -45.6597   59.1129   66.6930 C   0  0  0  0  0  0  0  0  0  0  0  0
  -45.7355   59.8760   65.3816 C   0  0  0  0  0  0  0  0  0  0  0  0
  -47.1304   59.8720   64.7972 C   0  0  0  0  0  0  0  0  0  0  0  0
  -48.2476   59.8712   65.8208 C   0  0  0  0  0  0  0  0  0  0  0  0
  -49.2389   58.7880   65.6310 C   0  0  0  0  0  0  0  0  0  0  0  0
  -50.3445   58.8642   64.9192 C   0  0  0  0  0  0  0  0  0  0  0  0
  -50.8242   60.0309   64.1182 C   0  0  0  0  0  0  0  0  0  0  0  0
  -51.1326   59.5946   62.6850 C   0  0  0  0  0  0  0  0  0  0  0  0
  -50.8575   58.1304   62.3756 C   0  0  0  0  0  0  0  0  0  0  0  0
  -50.9081   57.7638   60.8974 C   0  0  0  0  0  0  0  0  0  0  0  0
  -49.6890   58.2344   60.1110 C   0  0  0  0  0  0  0  0  0  0  0  0
  -49.3436   57.3455   58.9268 C   0  0  0  0  0  0  0  0  0  0  0  0
  -48.2738   56.2963   59.1900 C   0  0  0  0  0  0  0  0  0  0  0  0
  -47.2928   56.1736   58.0648 C   0  0  0  0  0  0  0  0  0  0  0  0
  -41.5740   58.9244   64.7354 O   0  0  0  0  0  0  0  0  0  0  0  0
  -40.5706   58.1923   63.9977 C   0  0  0  0  0  0  0  0  0  0  0  0
  -39.8358   59.0827   63.0184 C   0  0  0  0  0  0  0  0  0  0  0  0
  -40.6161   60.2396   62.6879 O   0  0  0  0  0  0  0  0  0  0  0  0
  -40.7572   60.7731   63.4857 H   0  0  0  0  0  0  0  0  0  0  0  0
  -38.4836   59.5185   63.5322 C   0  0  0  0  0  0  0  0  0  0  0  0
  -38.1977   60.8971   63.1931 O   0  0  0  0  0  0  0  0  0  0  0  0
  -37.2421   61.9986   63.8635 P   0  0  0  0  0  0  0  0  0  0  0  0
  -37.4854   61.9874   65.3718 O   0  0  0  0  0  0  0  0  0  0  0  0
  -37.6123   63.3306   63.3370 O   0  0  0  0  0  0  0  0  0  0  0  0
  -38.5505   63.4997   63.5161 H   0  0  0  0  0  0  0  0  0  0  0  0
  -35.6553   61.6716   63.5801 O   0  0  0  0  0  0  0  0  0  0  0  0
  -34.5682   61.8332   64.5313 C   0  0  0  0  0  0  0  0  0  0  0  0
  -33.2393   61.7750   63.8193 C   0  0  0  0  0  0  0  0  0  0  0  0
  -32.6877   63.0924   63.3067 N   0  0  0  0  0  0  0  0  0  0  0  0
  -31.3826   63.4056   63.9651 C   0  0  0  0  0  0  0  0  0  0  0  0
  -33.6649   64.1757   63.6262 C   0  0  0  0  0  0  0  0  0  0  0  0
  -32.4789   63.0331   61.8202 C   0  0  0  0  0  0  0  0  0  0  0  0
 34 33  1  0  0  0
 34 35  1  0  0  0
 34 36  1  0  0  0
 34 37  1  0  0  0
 22 23  1  0  0  0
 22 25  1  0  0  0
 22 21  1  0  0  0
 23 24  1  0  0  0
 27 26  1  0  0  0
 27 28  2  0  0  0
 27 31  1  0  0  0
 27 29  1  0  0  0
 25 26  1  0  0  0
 32 33  1  0  0  0
 32 31  1  0  0  0
 29 30  1  0  0  0
 20 21  1  0  0  0
 20  2  1  0  0  0
  1  2  2  0  0  0
  2  3  1  0  0  0
  3  4  1  0  0  0
  4  5  1  0  0  0
  5  6  1  0  0  0
  6  7  1  0  0  0
  7  8  1  0  0  0
  8  9  1  0  0  0
  9 10  1  0  0  0
 10 11  2  0  0  0
 11 12  1  0  0  0
 12 13  1  0  0  0
 13 14  1  0  0  0
 14 15  1  0  0  0
 15 16  1  0  0  0
 16 17  1  0  0  0
 17 18  1  0  0  0
 18 19  1  0  0  0
M  CHG 1  28  -1
M  END
> <minimizedAffinity>
-7.71607

> <CNNscore>
0.6842309833

> <CNNaffinity>
6.2989664078

> <CNN_VS>
4.3099479675

> <CNNaffinity_variance>
0.0881276280

$$$$
/media/chris/experiments/cd1a-new-docking/inputs/ligands/4x6e_ligand.pdb


 37 36  0  0  0  0  0  0  0  0999 V2000
  -40.7255   61.0716   66.2747 O   0  0  0  0  0  0  0  0  0  0  0  0
  -40.8249   60.1026   65.5634 C   0  0  0  0  0  0  0  0  0  0  0  0
  -41.9538   59.1185   65.5923 C   0  0  0  0  0  0  0  0  0  0  0  0
  -43.2753   59.7352   66.0350 C   0  0  0  0  0  0  0  0  0  0  0  0
  -44.1215   58.8332   66.9170 C   0  0  0  0  0  0  0  0  0  0  0  0
  -45.5363   58.6380   66.4008 C   0  0  0  0  0  0  0  0  0  0  0  0
  -46.2391   57.4497   67.0346 C   0  0  0  0  0  0  0  0  0  0  0  0
  -47.3654   56.9247   66.1723 C   0  0  0  0  0  0  0  0  0  0  0  0
  -48.1026   57.9831   65.3773 C   0  0  0  0  0  0  0  0  0  0  0  0
  -49.5165   58.1629   65.7781 C   0  0  0  0  0  0  0  0  0  0  0  0
  -50.3628   59.0335   65.2676 C   0  0  0  0  0  0  0  0  0  0  0  0
  -50.1057   59.9970   64.1548 C   0  0  0  0  0  0  0  0  0  0  0  0
  -51.1590   59.8286   63.0585 C   0  0  0  0  0  0  0  0  0  0  0  0
  -51.1661   58.4750   62.3635 C   0  0  0  0  0  0  0  0  0  0  0  0
  -49.9740   58.2132   61.4510 C   0  0  0  0  0  0  0  0  0  0  0  0
  -50.2986   57.3036   60.2706 C   0  0  0  0  0  0  0  0  0  0  0  0
  -49.5955   57.6986   58.9816 C   0  0  0  0  0  0  0  0  0  0  0  0
  -48.3138   56.9371   58.6790 C   0  0  0  0  0  0  0  0  0  0  0  0
  -47.9672   56.9414   57.2218 C   0  0  0  0  0  0  0  0  0  0  0  0
  -39.9365   59.7663   64.6235 O   0  0  0  0  0  0  0  0  0  0  0  0
  -39.7525   60.6735   63.5144 C   0  0  0  0  0  0  0  0  0  0  0  0
  -38.3014   60.7504   63.0898 C   0  0  0  0  0  0  0  0  0  0  0  0
  -38.1463   60.3765   61.7141 O   0  0  0  0  0  0  0  0  0  0  0  0
  -38.6266   61.0047   61.1522 H   0  0  0  0  0  0  0  0  0  0  0  0
  -37.7047   62.1209   63.3085 C   0  0  0  0  0  0  0  0  0  0  0  0
  -37.5740   62.4326   64.7167 O   0  0  0  0  0  0  0  0  0  0  0  0
  -36.8237   61.6862   65.9232 P   0  0  0  0  0  0  0  0  0  0  0  0
  -35.7496   60.7772   65.3280 O   0  0  0  0  0  0  0  0  0  0  0  0
  -37.8049   60.8458   66.6438 O   0  0  0  0  0  0  0  0  0  0  0  0
  -38.2141   60.2225   66.0235 H   0  0  0  0  0  0  0  0  0  0  0  0
  -36.1050   62.7598   66.9411 O   0  0  0  0  0  0  0  0  0  0  0  0
  -34.7172   63.1884   66.8871 C   0  0  0  0  0  0  0  0  0  0  0  0
  -34.5838   64.4158   66.0200 C   0  0  0  0  0  0  0  0  0  0  0  0
  -33.5968   64.3287   64.8708 N   0  0  0  0  0  0  0  0  0  0  0  0
  -34.2119   63.6247   63.7042 C   0  0  0  0  0  0  0  0  0  0  0  0
  -32.4004   63.5597   65.3263 C   0  0  0  0  0  0  0  0  0  0  0  0
  -33.1701   65.7025   64.4379 C   0  0  0  0  0  0  0  0  0  0  0  0
 34 33  1  0  0  0
 34 35  1  0  0  0
 34 36  1  0  0  0
 34 37  1  0  0  0
 22 23  1  0  0  0
 22 25  1  0  0  0
 22 21  1  0  0  0
 23 24  1  0  0  0
 27 26  1  0  0  0
 27 28  2  0  0  0
 27 31  1  0  0  0
 27 29  1  0  0  0
 25 26  1  0  0  0
 32 33  1  0  0  0
 32 31  1  0  0  0
 29 30  1  0  0  0
 20 21  1  0  0  0
 20  2  1  0  0  0
  1  2  2  0  0  0
  2  3  1  0  0  0
  3  4  1  0  0  0
  4  5  1  0  0  0
  5  6  1  0  0  0
  6  7  1  0  0  0
  7  8  1  0  0  0
  8  9  1  0  0  0
  9 10  1  0  0  0
 10 11  2  0  0  0
 11 12  1  0  0  0
 12 13  1  0  0  0
 13 14  1  0  0  0
 14 15  1  0  0  0
 15 16  1  0  0  0
 16 17  1  0  0  0
 17 18  1  0  0  0
 18 19  1  0  0  0
M  CHG 1  28  -1
M  END
> <minimizedAffinity>
-8.04335

> <CNNscore>
0.6767429113

> <CNNaffinity>
6.2780847549

> <CNN_VS>
4.2486491203

> <CNNaffinity_variance>
0.4113152623

$$$$
/media/chris/experiments/cd1a-new-docking/inputs/ligands/4x6e_ligand.pdb


 37 36  0  0  0  0  0  0  0  0999 V2000
  -41.4337   61.0006   64.6486 O   0  0  0  0  0  0  0  0  0  0  0  0
  -40.9216   60.3302   65.5105 C   0  0  0  0  0  0  0  0  0  0  0  0
  -41.3375   58.9424   65.8908 C   0  0  0  0  0  0  0  0  0  0  0  0
  -42.3704   58.9118   67.0109 C   0  0  0  0  0  0  0  0  0  0  0  0
  -43.6942   59.5683   66.6584 C   0  0  0  0  0  0  0  0  0  0  0  0
  -44.4458   58.8551   65.5483 C   0  0  0  0  0  0  0  0  0  0  0  0
  -45.4377   59.7552   64.8316 C   0  0  0  0  0  0  0  0  0  0  0  0
  -46.6933   59.0152   64.4275 C   0  0  0  0  0  0  0  0  0  0  0  0
  -47.7988   59.0275   65.4636 C   0  0  0  0  0  0  0  0  0  0  0  0
  -48.9880   58.2302   65.0864 C   0  0  0  0  0  0  0  0  0  0  0  0
  -49.9218   58.5880   64.2292 C   0  0  0  0  0  0  0  0  0  0  0  0
  -49.9728   59.8442   63.4217 C   0  0  0  0  0  0  0  0  0  0  0  0
  -50.4315   59.5353   61.9956 C   0  0  0  0  0  0  0  0  0  0  0  0
  -50.7054   58.0676   61.7022 C   0  0  0  0  0  0  0  0  0  0  0  0
  -50.2567   57.5910   60.3260 C   0  0  0  0  0  0  0  0  0  0  0  0
  -49.3664   56.3534   60.3703 C   0  0  0  0  0  0  0  0  0  0  0  0
  -48.2759   56.3453   59.3108 C   0  0  0  0  0  0  0  0  0  0  0  0
  -48.5073   57.2771   58.1308 C   0  0  0  0  0  0  0  0  0  0  0  0
  -47.5357   57.0502   57.0136 C   0  0  0  0  0  0  0  0  0  0  0  0
  -39.8856   60.7275   66.2552 O   0  0  0  0  0  0  0  0  0  0  0  0
  -38.6232   60.0501   66.0701 C   0  0  0  0  0  0  0  0  0  0  0  0
  -37.5259   61.0124   65.6676 C   0  0  0  0  0  0  0  0  0  0  0  0
  -36.9538   61.6516   66.8168 O   0  0  0  0  0  0  0  0  0  0  0  0
  -36.5347   60.9844   67.3827 H   0  0  0  0  0  0  0  0  0  0  0  0
  -36.4325   60.3440   64.8678 C   0  0  0  0  0  0  0  0  0  0  0  0
  -36.9685   59.4144   63.8952 O   0  0  0  0  0  0  0  0  0  0  0  0
  -36.6459   57.8739   63.5813 P   0  0  0  0  0  0  0  0  0  0  0  0
  -36.6675   57.1032   64.9002 O   0  0  0  0  0  0  0  0  0  0  0  0
  -35.2865   57.7824   63.0050 O   0  0  0  0  0  0  0  0  0  0  0  0
  -34.6473   58.1739   63.6206 H   0  0  0  0  0  0  0  0  0  0  0  0
  -37.7628   57.2196   62.5667 O   0  0  0  0  0  0  0  0  0  0  0  0
  -38.6846   57.9603   61.7214 C   0  0  0  0  0  0  0  0  0  0  0  0
  -39.9653   58.2415   62.4677 C   0  0  0  0  0  0  0  0  0  0  0  0
  -41.1832   57.4394   62.0483 N   0  0  0  0  0  0  0  0  0  0  0  0
  -41.1592   57.1818   60.5758 C   0  0  0  0  0  0  0  0  0  0  0  0
  -42.4096   58.2227   62.3841 C   0  0  0  0  0  0  0  0  0  0  0  0
  -41.2207   56.1225   62.7702 C   0  0  0  0  0  0  0  0  0  0  0  0
 34 33  1  0  0  0
 34 35  1  0  0  0
 34 36  1  0  0  0
 34 37  1  0  0  0
 22 23  1  0  0  0
 22 25  1  0  0  0
 22 21  1  0  0  0
 23 24  1  0  0  0
 27 26  1  0  0  0
 27 28  2  0  0  0
 27 31  1  0  0  0
 27 29  1  0  0  0
 25 26  1  0  0  0
 32 33  1  0  0  0
 32 31  1  0  0  0
 29 30  1  0  0  0
 20 21  1  0  0  0
 20  2  1  0  0  0
  1  2  2  0  0  0
  2  3  1  0  0  0
  3  4  1  0  0  0
  4  5  1  0  0  0
  5  6  1  0  0  0
  6  7  1  0  0  0
  7  8  1  0  0  0
  8  9  1  0  0  0
  9 10  1  0  0  0
 10 11  2  0  0  0
 11 12  1  0  0  0
 12 13  1  0  0  0
 13 14  1  0  0  0
 14 15  1  0  0  0
 15 16  1  0  0  0
 16 17  1  0  0  0
 17 18  1  0  0  0
 18 19  1  0  0  0
M  CHG 1  28  -1
M  END
> <minimizedAffinity>
-7.95488

> <CNNscore>
0.6730453372

> <CNNaffinity>
6.9964647293

> <CNN_VS>
4.7089381218

> <CNNaffinity_variance>
0.2679034472

$$$$
/media/chris/experiments/cd1a-new-docking/inputs/ligands/4x6e_ligand.pdb


 37 36  0  0  0  0  0  0  0  0999 V2000
  -43.8922   60.7365   63.6505 O   0  0  0  0  0  0  0  0  0  0  0  0
  -43.8854   59.6059   64.0705 C   0  0  0  0  0  0  0  0  0  0  0  0
  -45.0259   58.6395   63.9760 C   0  0  0  0  0  0  0  0  0  0  0  0
  -45.2932   57.8982   65.2805 C   0  0  0  0  0  0  0  0  0  0  0  0
  -45.7487   58.7890   66.4236 C   0  0  0  0  0  0  0  0  0  0  0  0
  -47.1693   58.5073   66.8801 C   0  0  0  0  0  0  0  0  0  0  0  0
  -47.9285   57.6000   65.9273 C   0  0  0  0  0  0  0  0  0  0  0  0
  -49.3860   57.9864   65.8088 C   0  0  0  0  0  0  0  0  0  0  0  0
  -49.6527   59.4774   65.8474 C   0  0  0  0  0  0  0  0  0  0  0  0
  -50.8449   59.8971   65.0762 C   0  0  0  0  0  0  0  0  0  0  0  0
  -50.8629   60.2519   63.8079 C   0  0  0  0  0  0  0  0  0  0  0  0
  -49.7084   60.2721   62.8594 C   0  0  0  0  0  0  0  0  0  0  0  0
  -50.0569   59.4949   61.5889 C   0  0  0  0  0  0  0  0  0  0  0  0
  -50.2446   57.9961   61.7722 C   0  0  0  0  0  0  0  0  0  0  0  0
  -50.5831   57.2289   60.4998 C   0  0  0  0  0  0  0  0  0  0  0  0
  -49.8348   57.7302   59.2690 C   0  0  0  0  0  0  0  0  0  0  0  0
  -48.5593   56.9581   58.9712 C   0  0  0  0  0  0  0  0  0  0  0  0
  -48.0312   57.0955   57.5511 C   0  0  0  0  0  0  0  0  0  0  0  0
  -47.2495   55.8983   57.1048 C   0  0  0  0  0  0  0  0  0  0  0  0
  -42.8408   59.0369   64.6793 O   0  0  0  0  0  0  0  0  0  0  0  0
  -41.9143   59.8995   65.3755 C   0  0  0  0  0  0  0  0  0  0  0  0
  -40.6143   60.0534   64.6150 C   0  0  0  0  0  0  0  0  0  0  0  0
  -40.6267   61.2383   63.8074 O   0  0  0  0  0  0  0  0  0  0  0  0
  -40.7001   62.0185   64.3791 H   0  0  0  0  0  0  0  0  0  0  0  0
  -39.4090   60.0783   65.5255 C   0  0  0  0  0  0  0  0  0  0  0  0
  -38.1704   59.9789   64.7816 O   0  0  0  0  0  0  0  0  0  0  0  0
  -37.4753   60.9471   63.7067 P   0  0  0  0  0  0  0  0  0  0  0  0
  -35.9675   60.7046   63.7506 O   0  0  0  0  0  0  0  0  0  0  0  0
  -37.7377   62.3506   64.0937 O   0  0  0  0  0  0  0  0  0  0  0  0
  -37.4099   62.5046   64.9935 H   0  0  0  0  0  0  0  0  0  0  0  0
  -38.0170   60.6431   62.1838 O   0  0  0  0  0  0  0  0  0  0  0  0
  -38.3524   59.3363   61.6430 C   0  0  0  0  0  0  0  0  0  0  0  0
  -39.6379   59.4116   60.8569 C   0  0  0  0  0  0  0  0  0  0  0  0
  -40.5961   58.2453   61.0128 N   0  0  0  0  0  0  0  0  0  0  0  0
  -42.0023   58.7361   61.1412 C   0  0  0  0  0  0  0  0  0  0  0  0
  -40.2310   57.4894   62.2480 C   0  0  0  0  0  0  0  0  0  0  0  0
  -40.5087   57.3297   59.8250 C   0  0  0  0  0  0  0  0  0  0  0  0
 34 33  1  0  0  0
 34 35  1  0  0  0
 34 36  1  0  0  0
 34 37  1  0  0  0
 22 23  1  0  0  0
 22 25  1  0  0  0
 22 21  1  0  0  0
 23 24  1  0  0  0
 27 26  1  0  0  0
 27 28  2  0  0  0
 27 31  1  0  0  0
 27 29  1  0  0  0
 25 26  1  0  0  0
 32 33  1  0  0  0
 32 31  1  0  0  0
 29 30  1  0  0  0
 20 21  1  0  0  0
 20  2  1  0  0  0
  1  2  2  0  0  0
  2  3  1  0  0  0
  3  4  1  0  0  0
  4  5  1  0  0  0
  5  6  1  0  0  0
  6  7  1  0  0  0
  7  8  1  0  0  0
  8  9  1  0  0  0
  9 10  1  0  0  0
 10 11  2  0  0  0
 11 12  1  0  0  0
 12 13  1  0  0  0
 13 14  1  0  0  0
 14 15  1  0  0  0
 15 16  1  0  0  0
 16 17  1  0  0  0
 17 18  1  0  0  0
 18 19  1  0  0  0
M  CHG 1  28  -1
M  END
> <minimizedAffinity>
-7.78459

> <CNNscore>
0.6661563516

> <CNNaffinity>
6.9526414871

> <CNN_VS>
4.6315464973

> <CNNaffinity_variance>
0.2070750743

$$$$
/media/chris/experiments/cd1a-new-docking/inputs/ligands/4x6e_ligand.pdb


 37 36  0  0  0  0  0  0  0  0999 V2000
  -41.8371   55.7830   64.0698 O   0  0  0  0  0  0  0  0  0  0  0  0
  -42.0972   56.9576   64.1545 C   0  0  0  0  0  0  0  0  0  0  0  0
  -43.4229   57.5245   64.5604 C   0  0  0  0  0  0  0  0  0  0  0  0
  -43.8714   58.6875   63.6836 C   0  0  0  0  0  0  0  0  0  0  0  0
  -44.5014   59.8396   64.4473 C   0  0  0  0  0  0  0  0  0  0  0  0
  -45.1510   59.4157   65.7528 C   0  0  0  0  0  0  0  0  0  0  0  0
  -46.6456   59.6856   65.7855 C   0  0  0  0  0  0  0  0  0  0  0  0
  -47.3144   59.3612   64.4683 C   0  0  0  0  0  0  0  0  0  0  0  0
  -48.3494   58.2567   64.5369 C   0  0  0  0  0  0  0  0  0  0  0  0
  -49.5721   58.6216   65.2878 C   0  0  0  0  0  0  0  0  0  0  0  0
  -50.5645   59.3634   64.8409 C   0  0  0  0  0  0  0  0  0  0  0  0
  -50.7010   59.9638   63.4794 C   0  0  0  0  0  0  0  0  0  0  0  0
  -51.1416   58.8974   62.4753 C   0  0  0  0  0  0  0  0  0  0  0  0
  -50.2385   58.7315   61.2620 C   0  0  0  0  0  0  0  0  0  0  0  0
  -50.4140   57.4220   60.5025 C   0  0  0  0  0  0  0  0  0  0  0  0
  -49.3911   57.2219   59.3890 C   0  0  0  0  0  0  0  0  0  0  0  0
  -48.5148   55.9935   59.5760 C   0  0  0  0  0  0  0  0  0  0  0  0
  -47.2618   55.9498   58.7143 C   0  0  0  0  0  0  0  0  0  0  0  0
  -47.5599   55.6825   57.2710 C   0  0  0  0  0  0  0  0  0  0  0  0
  -41.2255   57.9399   63.9074 O   0  0  0  0  0  0  0  0  0  0  0  0
  -39.8816   57.7926   64.4165 C   0  0  0  0  0  0  0  0  0  0  0  0
  -38.8653   57.7133   63.2972 C   0  0  0  0  0  0  0  0  0  0  0  0
  -39.1656   58.6573   62.2604 O   0  0  0  0  0  0  0  0  0  0  0  0
  -39.1070   59.5578   62.6161 H   0  0  0  0  0  0  0  0  0  0  0  0
  -37.4509   57.9314   63.7813 C   0  0  0  0  0  0  0  0  0  0  0  0
  -37.3645   59.0399   64.7093 O   0  0  0  0  0  0  0  0  0  0  0  0
  -37.1225   60.6119   64.4948 P   0  0  0  0  0  0  0  0  0  0  0  0
  -38.2209   61.3699   65.2384 O   0  0  0  0  0  0  0  0  0  0  0  0
  -37.2352   60.9160   63.0514 O   0  0  0  0  0  0  0  0  0  0  0  0
  -38.1037   60.6301   62.7275 H   0  0  0  0  0  0  0  0  0  0  0  0
  -35.6611   61.0820   65.0851 O   0  0  0  0  0  0  0  0  0  0  0  0
  -34.6026   61.7275   64.3265 C   0  0  0  0  0  0  0  0  0  0  0  0
  -34.8616   63.2106   64.2279 C   0  0  0  0  0  0  0  0  0  0  0  0
  -33.7392   64.1254   64.6816 N   0  0  0  0  0  0  0  0  0  0  0  0
  -33.9230   64.5091   66.1148 C   0  0  0  0  0  0  0  0  0  0  0  0
  -33.7609   65.3602   63.8418 C   0  0  0  0  0  0  0  0  0  0  0  0
  -32.4096   63.4432   64.5290 C   0  0  0  0  0  0  0  0  0  0  0  0
 34 33  1  0  0  0
 34 35  1  0  0  0
 34 36  1  0  0  0
 34 37  1  0  0  0
 22 23  1  0  0  0
 22 25  1  0  0  0
 22 21  1  0  0  0
 23 24  1  0  0  0
 27 26  1  0  0  0
 27 28  2  0  0  0
 27 31  1  0  0  0
 27 29  1  0  0  0
 25 26  1  0  0  0
 32 33  1  0  0  0
 32 31  1  0  0  0
 29 30  1  0  0  0
 20 21  1  0  0  0
 20  2  1  0  0  0
  1  2  2  0  0  0
  2  3  1  0  0  0
  3  4  1  0  0  0
  4  5  1  0  0  0
  5  6  1  0  0  0
  6  7  1  0  0  0
  7  8  1  0  0  0
  8  9  1  0  0  0
  9 10  1  0  0  0
 10 11  2  0  0  0
 11 12  1  0  0  0
 12 13  1  0  0  0
 13 14  1  0  0  0
 14 15  1  0  0  0
 15 16  1  0  0  0
 16 17  1  0  0  0
 17 18  1  0  0  0
 18 19  1  0  0  0
M  CHG 1  28  -1
M  END
> <minimizedAffinity>
-7.78451

> <CNNscore>
0.6190788746

> <CNNaffinity>
6.4183907509

> <CNN_VS>
3.9734902382

> <CNNaffinity_variance>
0.1481351107

$$$$
/media/chris/experiments/cd1a-new-docking/inputs/ligands/4x6e_ligand.pdb


 37 36  0  0  0  0  0  0  0  0999 V2000
  -41.7878   56.8756   62.9594 O   0  0  0  0  0  0  0  0  0  0  0  0
  -42.4320   57.8044   62.5387 C   0  0  0  0  0  0  0  0  0  0  0  0
  -43.5401   58.4941   63.2738 C   0  0  0  0  0  0  0  0  0  0  0  0
  -43.8059   57.9002   64.6519 C   0  0  0  0  0  0  0  0  0  0  0  0
  -44.1292   58.9272   65.7234 C   0  0  0  0  0  0  0  0  0  0  0  0
  -45.5056   58.7457   66.3388 C   0  0  0  0  0  0  0  0  0  0  0  0
  -45.8612   57.2878   66.5745 C   0  0  0  0  0  0  0  0  0  0  0  0
  -47.3195   57.0019   66.2931 C   0  0  0  0  0  0  0  0  0  0  0  0
  -48.0703   58.1341   65.6220 C   0  0  0  0  0  0  0  0  0  0  0  0
  -49.5267   58.1335   65.8886 C   0  0  0  0  0  0  0  0  0  0  0  0
  -50.4435   58.7707   65.1898 C   0  0  0  0  0  0  0  0  0  0  0  0
  -50.2318   59.5946   63.9613 C   0  0  0  0  0  0  0  0  0  0  0  0
  -51.1085   59.0747   62.8209 C   0  0  0  0  0  0  0  0  0  0  0  0
  -50.4081   58.9181   61.4792 C   0  0  0  0  0  0  0  0  0  0  0  0
  -50.7525   57.6439   60.7175 C   0  0  0  0  0  0  0  0  0  0  0  0
  -49.8203   57.3657   59.5429 C   0  0  0  0  0  0  0  0  0  0  0  0
  -48.7360   56.3451   59.8500 C   0  0  0  0  0  0  0  0  0  0  0  0
  -47.7393   56.0959   58.7281 C   0  0  0  0  0  0  0  0  0  0  0  0
  -47.9564   56.9945   57.5495 C   0  0  0  0  0  0  0  0  0  0  0  0
  -42.2414   58.3708   61.3435 O   0  0  0  0  0  0  0  0  0  0  0  0
  -41.7618   59.7332   61.3119 C   0  0  0  0  0  0  0  0  0  0  0  0
  -40.3269   59.8319   61.7845 C   0  0  0  0  0  0  0  0  0  0  0  0
  -39.4739   60.3257   60.7429 O   0  0  0  0  0  0  0  0  0  0  0  0
  -39.7431   61.2266   60.5044 H   0  0  0  0  0  0  0  0  0  0  0  0
  -40.1785   60.7021   63.0105 C   0  0  0  0  0  0  0  0  0  0  0  0
  -38.9175   60.4718   63.6845 O   0  0  0  0  0  0  0  0  0  0  0  0
  -37.5194   61.2596   63.6591 P   0  0  0  0  0  0  0  0  0  0  0  0
  -37.5568   62.2613   62.5061 O   0  0  0  0  0  0  0  0  0  0  0  0
  -36.4330   60.2886   63.4038 O   0  0  0  0  0  0  0  0  0  0  0  0
  -36.6065   59.8204   62.5722 H   0  0  0  0  0  0  0  0  0  0  0  0
  -37.2634   62.0769   65.0632 O   0  0  0  0  0  0  0  0  0  0  0  0
  -36.6332   63.3807   65.1883 C   0  0  0  0  0  0  0  0  0  0  0  0
  -35.2153   63.2295   65.6812 C   0  0  0  0  0  0  0  0  0  0  0  0
  -34.1155   63.5927   64.7009 N   0  0  0  0  0  0  0  0  0  0  0  0
  -34.5982   64.6216   63.7296 C   0  0  0  0  0  0  0  0  0  0  0  0
  -33.7205   62.3637   63.9498 C   0  0  0  0  0  0  0  0  0  0  0  0
  -32.9195   64.1367   65.4291 C   0  0  0  0  0  0  0  0  0  0  0  0
 34 33  1  0  0  0
 34 35  1  0  0  0
 34 36  1  0  0  0
 34 37  1  0  0  0
 22 23  1  0  0  0
 22 25  1  0  0  0
 22 21  1  0  0  0
 23 24  1  0  0  0
 27 26  1  0  0  0
 27 28  2  0  0  0
 27 31  1  0  0  0
 27 29  1  0  0  0
 25 26  1  0  0  0
 32 33  1  0  0  0
 32 31  1  0  0  0
 29 30  1  0  0  0
 20 21  1  0  0  0
 20  2  1  0  0  0
  1  2  2  0  0  0
  2  3  1  0  0  0
  3  4  1  0  0  0
  4  5  1  0  0  0
  5  6  1  0  0  0
  6  7  1  0  0  0
  7  8  1  0  0  0
  8  9  1  0  0  0
  9 10  1  0  0  0
 10 11  2  0  0  0
 11 12  1  0  0  0
 12 13  1  0  0  0
 13 14  1  0  0  0
 14 15  1  0  0  0
 15 16  1  0  0  0
 16 17  1  0  0  0
 17 18  1  0  0  0
 18 19  1  0  0  0
M  CHG 1  28  -1
M  END
> <minimizedAffinity>
-7.86075

> <CNNscore>
0.6096951365

> <CNNaffinity>
6.5544142723

> <CNN_VS>
3.9961946011

> <CNNaffinity_variance>
0.3250305057

$$$$
/media/chris/experiments/cd1a-new-docking/inputs/ligands/4x6e_ligand.pdb


 37 36  0  0  0  0  0  0  0  0999 V2000
  -41.8766   58.8355   66.9383 O   0  0  0  0  0  0  0  0  0  0  0  0
  -42.2600   58.5310   65.8361 C   0  0  0  0  0  0  0  0  0  0  0  0
  -43.0401   57.2972   65.5000 C   0  0  0  0  0  0  0  0  0  0  0  0
  -44.5284   57.5629   65.3076 C   0  0  0  0  0  0  0  0  0  0  0  0
  -45.3139   57.6855   66.6019 C   0  0  0  0  0  0  0  0  0  0  0  0
  -45.7761   59.1016   66.8966 C   0  0  0  0  0  0  0  0  0  0  0  0
  -45.8218   59.9794   65.6576 C   0  0  0  0  0  0  0  0  0  0  0  0
  -47.2062   60.0420   65.0516 C   0  0  0  0  0  0  0  0  0  0  0  0
  -48.3402   60.0295   66.0565 C   0  0  0  0  0  0  0  0  0  0  0  0
  -49.3355   58.9572   65.8295 C   0  0  0  0  0  0  0  0  0  0  0  0
  -50.3902   59.0314   65.0440 C   0  0  0  0  0  0  0  0  0  0  0  0
  -50.7954   60.1832   64.1827 C   0  0  0  0  0  0  0  0  0  0  0  0
  -51.0407   59.7084   62.7495 C   0  0  0  0  0  0  0  0  0  0  0  0
  -50.8328   58.2201   62.5111 C   0  0  0  0  0  0  0  0  0  0  0  0
  -50.8491   57.7936   61.0482 C   0  0  0  0  0  0  0  0  0  0  0  0
  -49.5664   58.1386   60.2987 C   0  0  0  0  0  0  0  0  0  0  0  0
  -49.2461   57.1826   59.1606 C   0  0  0  0  0  0  0  0  0  0  0  0
  -48.2507   56.0819   59.4951 C   0  0  0  0  0  0  0  0  0  0  0  0
  -47.2383   55.8671   58.4122 C   0  0  0  0  0  0  0  0  0  0  0  0
  -42.0531   59.2656   64.7391 O   0  0  0  0  0  0  0  0  0  0  0  0
  -41.2132   58.7093   63.7037 C   0  0  0  0  0  0  0  0  0  0  0  0
  -40.5828   59.7916   62.8534 C   0  0  0  0  0  0  0  0  0  0  0  0
  -41.1651   61.0718   63.1335 O   0  0  0  0  0  0  0  0  0  0  0  0
  -40.9863   61.3135   64.0558 H   0  0  0  0  0  0  0  0  0  0  0  0
  -39.0848   59.8709   63.0318 C   0  0  0  0  0  0  0  0  0  0  0  0
  -38.6287   61.2402   63.1517 O   0  0  0  0  0  0  0  0  0  0  0  0
  -37.4423   61.9135   63.9973 P   0  0  0  0  0  0  0  0  0  0  0  0
  -37.6667   61.5924   65.4740 O   0  0  0  0  0  0  0  0  0  0  0  0
  -37.5074   63.3807   63.8196 O   0  0  0  0  0  0  0  0  0  0  0  0
  -38.3814   63.7011   64.0926 H   0  0  0  0  0  0  0  0  0  0  0  0
  -35.9734   61.3284   63.5448 O   0  0  0  0  0  0  0  0  0  0  0  0
  -35.0267   60.6410   64.4074 C   0  0  0  0  0  0  0  0  0  0  0  0
  -35.5969   59.3191   64.8586 C   0  0  0  0  0  0  0  0  0  0  0  0
  -35.2217   58.1027   64.0327 N   0  0  0  0  0  0  0  0  0  0  0  0
  -35.6886   56.8504   64.7025 C   0  0  0  0  0  0  0  0  0  0  0  0
  -33.7349   58.0566   63.8991 C   0  0  0  0  0  0  0  0  0  0  0  0
  -35.8418   58.1821   62.6667 C   0  0  0  0  0  0  0  0  0  0  0  0
 34 33  1  0  0  0
 34 35  1  0  0  0
 34 36  1  0  0  0
 34 37  1  0  0  0
 22 23  1  0  0  0
 22 25  1  0  0  0
 22 21  1  0  0  0
 23 24  1  0  0  0
 27 26  1  0  0  0
 27 28  2  0  0  0
 27 31  1  0  0  0
 27 29  1  0  0  0
 25 26  1  0  0  0
 32 33  1  0  0  0
 32 31  1  0  0  0
 29 30  1  0  0  0
 20 21  1  0  0  0
 20  2  1  0  0  0
  1  2  2  0  0  0
  2  3  1  0  0  0
  3  4  1  0  0  0
  4  5  1  0  0  0
  5  6  1  0  0  0
  6  7  1  0  0  0
  7  8  1  0  0  0
  8  9  1  0  0  0
  9 10  1  0  0  0
 10 11  2  0  0  0
 11 12  1  0  0  0
 12 13  1  0  0  0
 13 14  1  0  0  0
 14 15  1  0  0  0
 15 16  1  0  0  0
 16 17  1  0  0  0
 17 18  1  0  0  0
 18 19  1  0  0  0
M  CHG 1  28  -1
M  END
> <minimizedAffinity>
-7.67972

> <CNNscore>
0.6033357382

> <CNNaffinity>
6.5240540504

> <CNN_VS>
3.9361948967

> <CNNaffinity_variance>
0.1944473088

$$$$
