/media/chris/experiments/cd1a-new-docking/inputs/ligands/4x6e_ligand.pdb


 37 36  0  0  0  0  0  0  0  0999 V2000
  -41.2046   56.8430   63.7953 O   0  0  0  0  0  0  0  0  0  0  0  0
  -41.7304   57.2411   64.8051 C   0  0  0  0  0  0  0  0  0  0  0  0
  -43.0417   56.7605   65.3468 C   0  0  0  0  0  0  0  0  0  0  0  0
  -43.6820   57.7398   66.3234 C   0  0  0  0  0  0  0  0  0  0  0  0
  -44.7333   58.6438   65.7030 C   0  0  0  0  0  0  0  0  0  0  0  0
  -46.0150   58.7251   66.5135 C   0  0  0  0  0  0  0  0  0  0  0  0
  -46.5113   57.3654   66.9742 C   0  0  0  0  0  0  0  0  0  0  0  0
  -47.6157   56.8301   66.0904 C   0  0  0  0  0  0  0  0  0  0  0  0
  -48.3694   57.8853   65.3066 C   0  0  0  0  0  0  0  0  0  0  0  0
  -49.6938   58.2269   65.8736 C   0  0  0  0  0  0  0  0  0  0  0  0
  -50.5370   59.1174   65.3932 C   0  0  0  0  0  0  0  0  0  0  0  0
  -50.3707   59.9455   64.1606 C   0  0  0  0  0  0  0  0  0  0  0  0
  -51.1238   59.3075   62.9921 C   0  0  0  0  0  0  0  0  0  0  0  0
  -50.2646   58.9147   61.7992 C   0  0  0  0  0  0  0  0  0  0  0  0
  -50.7696   57.7132   61.0094 C   0  0  0  0  0  0  0  0  0  0  0  0
  -49.9273   57.3960   59.7780 C   0  0  0  0  0  0  0  0  0  0  0  0
  -48.9798   56.2226   59.9700 C   0  0  0  0  0  0  0  0  0  0  0  0
  -47.9041   56.0727   58.9047 C   0  0  0  0  0  0  0  0  0  0  0  0
  -48.0822   57.0259   57.7631 C   0  0  0  0  0  0  0  0  0  0  0  0
  -41.2079   58.1737   65.6069 O   0  0  0  0  0  0  0  0  0  0  0  0
  -39.8549   58.6067   65.3447 C   0  0  0  0  0  0  0  0  0  0  0  0
  -39.7288   60.1144   65.4044 C   0  0  0  0  0  0  0  0  0  0  0  0
  -40.7379   60.6829   66.2500 O   0  0  0  0  0  0  0  0  0  0  0  0
  -40.6156   60.3647   67.1581 H   0  0  0  0  0  0  0  0  0  0  0  0
  -38.3659   60.5644   65.8759 C   0  0  0  0  0  0  0  0  0  0  0  0
  -37.9660   61.8104   65.2554 O   0  0  0  0  0  0  0  0  0  0  0  0
  -37.0395   62.1366   63.9862 P   0  0  0  0  0  0  0  0  0  0  0  0
  -35.8346   61.1977   64.0206 O   0  0  0  0  0  0  0  0  0  0  0  0
  -36.5541   63.5294   64.0992 O   0  0  0  0  0  0  0  0  0  0  0  0
  -36.0803   63.6395   64.9385 H   0  0  0  0  0  0  0  0  0  0  0  0
  -37.8506   61.9065   62.5740 O   0  0  0  0  0  0  0  0  0  0  0  0
  -38.7794   60.8247   62.2904 C   0  0  0  0  0  0  0  0  0  0  0  0
  -38.0249   59.5441   62.0320 C   0  0  0  0  0  0  0  0  0  0  0  0
  -38.7312   58.5013   61.1855 N   0  0  0  0  0  0  0  0  0  0  0  0
  -38.5801   57.1435   61.7929 C   0  0  0  0  0  0  0  0  0  0  0  0
  -38.1168   58.4954   59.8244 C   0  0  0  0  0  0  0  0  0  0  0  0
  -40.1945   58.8204   61.0695 C   0  0  0  0  0  0  0  0  0  0  0  0
 34 33  1  0  0  0
 34 35  1  0  0  0
 34 36  1  0  0  0
 34 37  1  0  0  0
 22 23  1  0  0  0
 22 25  1  0  0  0
 22 21  1  0  0  0
 23 24  1  0  0  0
 27 26  1  0  0  0
 27 28  2  0  0  0
 27 31  1  0  0  0
 27 29  1  0  0  0
 25 26  1  0  0  0
 32 33  1  0  0  0
 32 31  1  0  0  0
 29 30  1  0  0  0
 20 21  1  0  0  0
 20  2  1  0  0  0
  1  2  2  0  0  0
  2  3  1  0  0  0
  3  4  1  0  0  0
  4  5  1  0  0  0
  5  6  1  0  0  0
  6  7  1  0  0  0
  7  8  1  0  0  0
  8  9  1  0  0  0
  9 10  1  0  0  0
 10 11  2  0  0  0
 11 12  1  0  0  0
 12 13  1  0  0  0
 13 14  1  0  0  0
 14 15  1  0  0  0
 15 16  1  0  0  0
 16 17  1  0  0  0
 17 18  1  0  0  0
 18 19  1  0  0  0
M  CHG 1  28  -1
M  END
> <minimizedAffinity>
-8.11463

> <CNNscore>
0.8347942829

> <CNNaffinity>
7.1021928787

> <CNN_VS>
5.9288702011

> <CNNaffinity_variance>
0.1656210124

$$$$
/media/chris/experiments/cd1a-new-docking/inputs/ligands/4x6e_ligand.pdb


 37 36  0  0  0  0  0  0  0  0999 V2000
  -40.9062   60.9762   64.7689 O   0  0  0  0  0  0  0  0  0  0  0  0
  -41.0732   59.9893   65.4418 C   0  0  0  0  0  0  0  0  0  0  0  0
  -41.7362   59.9581   66.7847 C   0  0  0  0  0  0  0  0  0  0  0  0
  -42.6012   58.7216   66.9976 C   0  0  0  0  0  0  0  0  0  0  0  0
  -44.0281   58.8629   66.4960 C   0  0  0  0  0  0  0  0  0  0  0  0
  -44.6867   57.5352   66.1650 C   0  0  0  0  0  0  0  0  0  0  0  0
  -45.9632   57.2950   66.9525 C   0  0  0  0  0  0  0  0  0  0  0  0
  -47.1617   57.0948   66.0519 C   0  0  0  0  0  0  0  0  0  0  0  0
  -48.0667   58.3030   65.9215 C   0  0  0  0  0  0  0  0  0  0  0  0
  -49.5090   57.9732   65.8652 C   0  0  0  0  0  0  0  0  0  0  0  0
  -50.4508   58.7049   65.3062 C   0  0  0  0  0  0  0  0  0  0  0  0
  -50.2765   59.9966   64.5755 C   0  0  0  0  0  0  0  0  0  0  0  0
  -50.7385   59.8475   63.1250 C   0  0  0  0  0  0  0  0  0  0  0  0
  -50.7449   58.4246   62.5856 C   0  0  0  0  0  0  0  0  0  0  0  0
  -49.6651   58.1222   61.5536 C   0  0  0  0  0  0  0  0  0  0  0  0
  -50.1776   57.3445   60.3458 C   0  0  0  0  0  0  0  0  0  0  0  0
  -49.5851   57.8062   59.0239 C   0  0  0  0  0  0  0  0  0  0  0  0
  -48.4311   56.9659   58.4983 C   0  0  0  0  0  0  0  0  0  0  0  0
  -47.9829   55.9216   59.4741 C   0  0  0  0  0  0  0  0  0  0  0  0
  -40.6972   58.7596   65.0784 O   0  0  0  0  0  0  0  0  0  0  0  0
  -39.3248   58.3766   65.3160 C   0  0  0  0  0  0  0  0  0  0  0  0
  -38.5410   58.2749   64.0246 C   0  0  0  0  0  0  0  0  0  0  0  0
  -39.2101   58.9643   62.9600 O   0  0  0  0  0  0  0  0  0  0  0  0
  -39.2639   59.9096   63.1705 H   0  0  0  0  0  0  0  0  0  0  0  0
  -37.1319   58.8031   64.1581 C   0  0  0  0  0  0  0  0  0  0  0  0
  -37.0838   60.0143   64.9506 O   0  0  0  0  0  0  0  0  0  0  0  0
  -37.1580   61.5679   64.5547 P   0  0  0  0  0  0  0  0  0  0  0  0
  -37.2782   62.3832   65.8413 O   0  0  0  0  0  0  0  0  0  0  0  0
  -38.3726   61.7920   63.7406 O   0  0  0  0  0  0  0  0  0  0  0  0
  -39.1533   61.5013   64.2377 H   0  0  0  0  0  0  0  0  0  0  0  0
  -35.8084   62.0484   63.7469 O   0  0  0  0  0  0  0  0  0  0  0  0
  -34.4392   61.9085   64.2149 C   0  0  0  0  0  0  0  0  0  0  0  0
  -33.5767   63.0038   63.6383 C   0  0  0  0  0  0  0  0  0  0  0  0
  -33.2420   64.1595   64.5630 N   0  0  0  0  0  0  0  0  0  0  0  0
  -33.1154   65.4314   63.7874 C   0  0  0  0  0  0  0  0  0  0  0  0
  -31.9411   63.8704   65.2370 C   0  0  0  0  0  0  0  0  0  0  0  0
  -34.3135   64.3298   65.6020 C   0  0  0  0  0  0  0  0  0  0  0  0
 34 33  1  0  0  0
 34 35  1  0  0  0
 34 36  1  0  0  0
 34 37  1  0  0  0
 22 23  1  0  0  0
 22 25  1  0  0  0
 22 21  1  0  0  0
 23 24  1  0  0  0
 27 26  1  0  0  0
 27 28  2  0  0  0
 27 31  1  0  0  0
 27 29  1  0  0  0
 25 26  1  0  0  0
 32 33  1  0  0  0
 32 31  1  0  0  0
 29 30  1  0  0  0
 20 21  1  0  0  0
 20  2  1  0  0  0
  1  2  2  0  0  0
  2  3  1  0  0  0
  3  4  1  0  0  0
  4  5  1  0  0  0
  5  6  1  0  0  0
  6  7  1  0  0  0
  7  8  1  0  0  0
  8  9  1  0  0  0
  9 10  1  0  0  0
 10 11  2  0  0  0
 11 12  1  0  0  0
 12 13  1  0  0  0
 13 14  1  0  0  0
 14 15  1  0  0  0
 15 16  1  0  0  0
 16 17  1  0  0  0
 17 18  1  0  0  0
 18 19  1  0  0  0
M  CHG 1  28  -1
M  END
> <minimizedAffinity>
-7.94647

> <CNNscore>
0.7684931755

> <CNNaffinity>
6.3754978180

> <CNN_VS>
4.8995265961

> <CNNaffinity_variance>
0.0573131517

$$$$
/media/chris/experiments/cd1a-new-docking/inputs/ligands/4x6e_ligand.pdb


 37 36  0  0  0  0  0  0  0  0999 V2000
  -37.5688   59.4138   65.3258 O   0  0  0  0  0  0  0  0  0  0  0  0
  -38.3217   60.3353   65.5224 C   0  0  0  0  0  0  0  0  0  0  0  0
  -39.7766   60.3567   65.1667 C   0  0  0  0  0  0  0  0  0  0  0  0
  -40.6645   59.7322   66.2364 C   0  0  0  0  0  0  0  0  0  0  0  0
  -41.4260   58.5010   65.7761 C   0  0  0  0  0  0  0  0  0  0  0  0
  -42.6456   58.1917   66.6264 C   0  0  0  0  0  0  0  0  0  0  0  0
  -43.4854   59.4213   66.9266 C   0  0  0  0  0  0  0  0  0  0  0  0
  -44.6917   59.5253   66.0202 C   0  0  0  0  0  0  0  0  0  0  0  0
  -46.0173   59.2272   66.6909 C   0  0  0  0  0  0  0  0  0  0  0  0
  -46.5458   57.8735   66.4075 C   0  0  0  0  0  0  0  0  0  0  0  0
  -47.7792   57.5816   66.0493 C   0  0  0  0  0  0  0  0  0  0  0  0
  -48.9008   58.5396   65.8104 C   0  0  0  0  0  0  0  0  0  0  0  0
  -49.4691   58.3448   64.4037 C   0  0  0  0  0  0  0  0  0  0  0  0
  -50.6775   59.2048   64.0638 C   0  0  0  0  0  0  0  0  0  0  0  0
  -51.1546   59.1033   62.6200 C   0  0  0  0  0  0  0  0  0  0  0  0
  -50.1711   59.6873   61.6110 C   0  0  0  0  0  0  0  0  0  0  0  0
  -49.9556   58.8102   60.3878 C   0  0  0  0  0  0  0  0  0  0  0  0
  -50.3253   57.3451   60.5635 C   0  0  0  0  0  0  0  0  0  0  0  0
  -49.2248   56.4161   60.1516 C   0  0  0  0  0  0  0  0  0  0  0  0
  -37.9669   61.4841   66.1057 O   0  0  0  0  0  0  0  0  0  0  0  0
  -36.5772   61.6596   66.4587 C   0  0  0  0  0  0  0  0  0  0  0  0
  -36.0898   63.0558   66.1336 C   0  0  0  0  0  0  0  0  0  0  0  0
  -37.0693   64.0400   66.4915 O   0  0  0  0  0  0  0  0  0  0  0  0
  -37.2126   64.0197   67.4506 H   0  0  0  0  0  0  0  0  0  0  0  0
  -34.7780   63.3839   66.8074 C   0  0  0  0  0  0  0  0  0  0  0  0
  -33.6471   63.1148   65.9437 O   0  0  0  0  0  0  0  0  0  0  0  0
  -33.2879   63.5918   64.4539 P   0  0  0  0  0  0  0  0  0  0  0  0
  -31.7689   63.7153   64.3453 O   0  0  0  0  0  0  0  0  0  0  0  0
  -33.8859   64.9256   64.2263 O   0  0  0  0  0  0  0  0  0  0  0  0
  -33.5613   65.5445   64.8991 H   0  0  0  0  0  0  0  0  0  0  0  0
  -33.8133   62.5097   63.3323 O   0  0  0  0  0  0  0  0  0  0  0  0
  -33.4019   61.1191   63.2307 C   0  0  0  0  0  0  0  0  0  0  0  0
  -34.4791   60.2154   63.7774 C   0  0  0  0  0  0  0  0  0  0  0  0
  -34.2542   58.7228   63.6215 N   0  0  0  0  0  0  0  0  0  0  0  0
  -35.4255   58.0841   62.9468 C   0  0  0  0  0  0  0  0  0  0  0  0
  -34.0877   58.1209   64.9781 C   0  0  0  0  0  0  0  0  0  0  0  0
  -33.0211   58.4587   62.8052 C   0  0  0  0  0  0  0  0  0  0  0  0
 34 33  1  0  0  0
 34 35  1  0  0  0
 34 36  1  0  0  0
 34 37  1  0  0  0
 22 23  1  0  0  0
 22 25  1  0  0  0
 22 21  1  0  0  0
 23 24  1  0  0  0
 27 26  1  0  0  0
 27 28  2  0  0  0
 27 31  1  0  0  0
 27 29  1  0  0  0
 25 26  1  0  0  0
 32 33  1  0  0  0
 32 31  1  0  0  0
 29 30  1  0  0  0
 20 21  1  0  0  0
 20  2  1  0  0  0
  1  2  2  0  0  0
  2  3  1  0  0  0
  3  4  1  0  0  0
  4  5  1  0  0  0
  5  6  1  0  0  0
  6  7  1  0  0  0
  7  8  1  0  0  0
  8  9  1  0  0  0
  9 10  1  0  0  0
 10 11  2  0  0  0
 11 12  1  0  0  0
 12 13  1  0  0  0
 13 14  1  0  0  0
 14 15  1  0  0  0
 15 16  1  0  0  0
 16 17  1  0  0  0
 17 18  1  0  0  0
 18 19  1  0  0  0
M  CHG 1  28  -1
M  END
> <minimizedAffinity>
-7.70534

> <CNNscore>
0.6810258031

> <CNNaffinity>
6.4235701561

> <CNN_VS>
4.3746170998

> <CNNaffinity_variance>
0.1326927245

$$$$
/media/chris/experiments/cd1a-new-docking/inputs/ligands/4x6e_ligand.pdb


 37 36  0  0  0  0  0  0  0  0999 V2000
  -41.9183   55.1936   64.6366 O   0  0  0  0  0  0  0  0  0  0  0  0
  -41.9339   56.3584   64.3240 C   0  0  0  0  0  0  0  0  0  0  0  0
  -42.0479   57.5095   65.2757 C   0  0  0  0  0  0  0  0  0  0  0  0
  -43.0790   58.5451   64.8432 C   0  0  0  0  0  0  0  0  0  0  0  0
  -44.5143   58.0486   64.8737 C   0  0  0  0  0  0  0  0  0  0  0  0
  -45.4437   58.8300   63.9617 C   0  0  0  0  0  0  0  0  0  0  0  0
  -46.2119   59.9185   64.6914 C   0  0  0  0  0  0  0  0  0  0  0  0
  -47.1384   59.3559   65.7462 C   0  0  0  0  0  0  0  0  0  0  0  0
  -48.0817   58.2777   65.2527 C   0  0  0  0  0  0  0  0  0  0  0  0
  -49.4580   58.3894   65.7871 C   0  0  0  0  0  0  0  0  0  0  0  0
  -50.4580   59.0369   65.2254 C   0  0  0  0  0  0  0  0  0  0  0  0
  -50.4440   59.7621   63.9190 C   0  0  0  0  0  0  0  0  0  0  0  0
  -50.9926   58.8616   62.8110 C   0  0  0  0  0  0  0  0  0  0  0  0
  -49.9539   58.3074   61.8469 C   0  0  0  0  0  0  0  0  0  0  0  0
  -50.5138   57.4413   60.7249 C   0  0  0  0  0  0  0  0  0  0  0  0
  -50.2218   57.9866   59.3308 C   0  0  0  0  0  0  0  0  0  0  0  0
  -48.9554   57.4232   58.7058 C   0  0  0  0  0  0  0  0  0  0  0  0
  -48.4368   56.1371   59.3312 C   0  0  0  0  0  0  0  0  0  0  0  0
  -47.0426   55.8026   58.8974 C   0  0  0  0  0  0  0  0  0  0  0  0
  -41.8383   56.8002   63.0665 O   0  0  0  0  0  0  0  0  0  0  0  0
  -40.5546   56.6977   62.4119 C   0  0  0  0  0  0  0  0  0  0  0  0
  -40.3235   57.8452   61.4516 C   0  0  0  0  0  0  0  0  0  0  0  0
  -41.4523   58.0287   60.5865 O   0  0  0  0  0  0  0  0  0  0  0  0
  -42.2289   58.2702   61.1152 H   0  0  0  0  0  0  0  0  0  0  0  0
  -40.0180   59.1433   62.1615 C   0  0  0  0  0  0  0  0  0  0  0  0
  -39.3061   58.9232   63.4033 O   0  0  0  0  0  0  0  0  0  0  0  0
  -38.7478   59.9300   64.5216 P   0  0  0  0  0  0  0  0  0  0  0  0
  -39.2932   59.4867   65.8782 O   0  0  0  0  0  0  0  0  0  0  0  0
  -39.2554   61.2889   64.2317 O   0  0  0  0  0  0  0  0  0  0  0  0
  -40.2249   61.2725   64.2024 H   0  0  0  0  0  0  0  0  0  0  0  0
  -37.1042   59.9133   64.5799 O   0  0  0  0  0  0  0  0  0  0  0  0
  -36.2314   61.0551   64.3612 C   0  0  0  0  0  0  0  0  0  0  0  0
  -35.8174   61.6554   65.6819 C   0  0  0  0  0  0  0  0  0  0  0  0
  -35.3682   63.1046   65.6557 N   0  0  0  0  0  0  0  0  0  0  0  0
  -35.7638   63.7986   66.9195 C   0  0  0  0  0  0  0  0  0  0  0  0
  -36.0249   63.7871   64.5010 C   0  0  0  0  0  0  0  0  0  0  0  0
  -33.8764   63.1907   65.5018 C   0  0  0  0  0  0  0  0  0  0  0  0
 34 33  1  0  0  0
 34 35  1  0  0  0
 34 36  1  0  0  0
 34 37  1  0  0  0
 22 23  1  0  0  0
 22 25  1  0  0  0
 22 21  1  0  0  0
 23 24  1  0  0  0
 27 26  1  0  0  0
 27 28  2  0  0  0
 27 31  1  0  0  0
 27 29  1  0  0  0
 25 26  1  0  0  0
 32 33  1  0  0  0
 32 31  1  0  0  0
 29 30  1  0  0  0
 20 21  1  0  0  0
 20  2  1  0  0  0
  1  2  2  0  0  0
  2  3  1  0  0  0
  3  4  1  0  0  0
  4  5  1  0  0  0
  5  6  1  0  0  0
  6  7  1  0  0  0
  7  8  1  0  0  0
  8  9  1  0  0  0
  9 10  1  0  0  0
 10 11  2  0  0  0
 11 12  1  0  0  0
 12 13  1  0  0  0
 13 14  1  0  0  0
 14 15  1  0  0  0
 15 16  1  0  0  0
 16 17  1  0  0  0
 17 18  1  0  0  0
 18 19  1  0  0  0
M  CHG 1  28  -1
M  END
> <minimizedAffinity>
-7.63659

> <CNNscore>
0.6199706793

> <CNNaffinity>
6.6050653458

> <CNN_VS>
4.0949468613

> <CNNaffinity_variance>
0.1872738600

$$$$
/media/chris/experiments/cd1a-new-docking/inputs/ligands/4x6e_ligand.pdb


 37 36  0  0  0  0  0  0  0  0999 V2000
  -42.8388   56.9727   66.0698 O   0  0  0  0  0  0  0  0  0  0  0  0
  -42.3918   57.8037   65.3186 C   0  0  0  0  0  0  0  0  0  0  0  0
  -42.9037   58.0911   63.9405 C   0  0  0  0  0  0  0  0  0  0  0  0
  -44.4110   58.3112   63.8947 C   0  0  0  0  0  0  0  0  0  0  0  0
  -44.8444   59.7344   64.2014 C   0  0  0  0  0  0  0  0  0  0  0  0
  -46.1718   59.8173   64.9344 C   0  0  0  0  0  0  0  0  0  0  0  0
  -46.0431   59.5502   66.4243 C   0  0  0  0  0  0  0  0  0  0  0  0
  -46.8409   58.3413   66.8597 C   0  0  0  0  0  0  0  0  0  0  0  0
  -47.6689   57.6993   65.7652 C   0  0  0  0  0  0  0  0  0  0  0  0
  -49.1296   57.8739   65.9325 C   0  0  0  0  0  0  0  0  0  0  0  0
  -49.9263   58.5527   65.1330 C   0  0  0  0  0  0  0  0  0  0  0  0
  -49.5512   59.2574   63.8699 C   0  0  0  0  0  0  0  0  0  0  0  0
  -49.5828   58.2811   62.6929 C   0  0  0  0  0  0  0  0  0  0  0  0
  -50.9201   58.1672   61.9759 C   0  0  0  0  0  0  0  0  0  0  0  0
  -50.8462   57.6092   60.5597 C   0  0  0  0  0  0  0  0  0  0  0  0
  -49.4266   57.5372   60.0067 C   0  0  0  0  0  0  0  0  0  0  0  0
  -49.3652   57.2961   58.5067 C   0  0  0  0  0  0  0  0  0  0  0  0
  -47.9722   57.3372   57.8968 C   0  0  0  0  0  0  0  0  0  0  0  0
  -47.3679   55.9758   57.7390 C   0  0  0  0  0  0  0  0  0  0  0  0
  -41.3678   58.6100   65.6137 O   0  0  0  0  0  0  0  0  0  0  0  0
  -41.0900   59.7042   64.7123 C   0  0  0  0  0  0  0  0  0  0  0  0
  -39.6075   60.0012   64.6337 C   0  0  0  0  0  0  0  0  0  0  0  0
  -39.3630   61.2186   63.9165 O   0  0  0  0  0  0  0  0  0  0  0  0
  -39.7631   61.9616   64.3949 H   0  0  0  0  0  0  0  0  0  0  0  0
  -38.9588   60.0813   65.9958 C   0  0  0  0  0  0  0  0  0  0  0  0
  -37.5228   60.2425   65.8995 O   0  0  0  0  0  0  0  0  0  0  0  0
  -36.5583   61.5017   66.1443 P   0  0  0  0  0  0  0  0  0  0  0  0
  -35.1298   61.0831   65.7997 O   0  0  0  0  0  0  0  0  0  0  0  0
  -36.6091   61.8661   67.5771 O   0  0  0  0  0  0  0  0  0  0  0  0
  -36.3566   61.0993   68.1149 H   0  0  0  0  0  0  0  0  0  0  0  0
  -36.9805   62.7768   65.1950 O   0  0  0  0  0  0  0  0  0  0  0  0
  -36.1698   63.3581   64.1377 C   0  0  0  0  0  0  0  0  0  0  0  0
  -35.1679   64.3240   64.7201 C   0  0  0  0  0  0  0  0  0  0  0  0
  -33.7216   64.1328   64.3025 N   0  0  0  0  0  0  0  0  0  0  0  0
  -32.8943   63.6903   65.4666 C   0  0  0  0  0  0  0  0  0  0  0  0
  -33.1938   65.4361   63.7993 C   0  0  0  0  0  0  0  0  0  0  0  0
  -33.6194   63.1015   63.2152 C   0  0  0  0  0  0  0  0  0  0  0  0
 34 33  1  0  0  0
 34 35  1  0  0  0
 34 36  1  0  0  0
 34 37  1  0  0  0
 22 23  1  0  0  0
 22 25  1  0  0  0
 22 21  1  0  0  0
 23 24  1  0  0  0
 27 26  1  0  0  0
 27 28  2  0  0  0
 27 31  1  0  0  0
 27 29  1  0  0  0
 25 26  1  0  0  0
 32 33  1  0  0  0
 32 31  1  0  0  0
 29 30  1  0  0  0
 20 21  1  0  0  0
 20  2  1  0  0  0
  1  2  2  0  0  0
  2  3  1  0  0  0
  3  4  1  0  0  0
  4  5  1  0  0  0
  5  6  1  0  0  0
  6  7  1  0  0  0
  7  8  1  0  0  0
  8  9  1  0  0  0
  9 10  1  0  0  0
 10 11  2  0  0  0
 11 12  1  0  0  0
 12 13  1  0  0  0
 13 14  1  0  0  0
 14 15  1  0  0  0
 15 16  1  0  0  0
 16 17  1  0  0  0
 17 18  1  0  0  0
 18 19  1  0  0  0
M  CHG 1  28  -1
M  END
> <minimizedAffinity>
-7.75822

> <CNNscore>
0.6035218835

> <CNNaffinity>
6.3013219833

> <CNN_VS>
3.8029856682

> <CNNaffinity_variance>
0.1679180413

$$$$
/media/chris/experiments/cd1a-new-docking/inputs/ligands/4x6e_ligand.pdb


 37 36  0  0  0  0  0  0  0  0999 V2000
  -41.8341   55.3188   64.6418 O   0  0  0  0  0  0  0  0  0  0  0  0
  -41.7312   56.4959   64.3997 C   0  0  0  0  0  0  0  0  0  0  0  0
  -42.2880   57.6050   65.2385 C   0  0  0  0  0  0  0  0  0  0  0  0
  -43.3154   57.1277   66.2580 C   0  0  0  0  0  0  0  0  0  0  0  0
  -44.7211   57.6530   66.0217 C   0  0  0  0  0  0  0  0  0  0  0  0
  -44.8815   59.1244   66.3614 C   0  0  0  0  0  0  0  0  0  0  0  0
  -45.3065   59.9643   65.1691 C   0  0  0  0  0  0  0  0  0  0  0  0
  -46.5601   59.4313   64.5119 C   0  0  0  0  0  0  0  0  0  0  0  0
  -47.6896   60.4341   64.3922 C   0  0  0  0  0  0  0  0  0  0  0  0
  -48.7135   60.3195   65.4556 C   0  0  0  0  0  0  0  0  0  0  0  0
  -49.7521   59.5096   65.4483 C   0  0  0  0  0  0  0  0  0  0  0  0
  -50.1076   58.5063   64.3995 C   0  0  0  0  0  0  0  0  0  0  0  0
  -50.8767   59.1824   63.2633 C   0  0  0  0  0  0  0  0  0  0  0  0
  -50.2087   59.1223   61.8975 C   0  0  0  0  0  0  0  0  0  0  0  0
  -50.4535   57.8367   61.1166 C   0  0  0  0  0  0  0  0  0  0  0  0
  -50.3880   58.0209   59.6040 C   0  0  0  0  0  0  0  0  0  0  0  0
  -49.0949   57.5188   58.9815 C   0  0  0  0  0  0  0  0  0  0  0  0
  -48.4646   56.3170   59.6689 C   0  0  0  0  0  0  0  0  0  0  0  0
  -47.2599   55.8004   58.9440 C   0  0  0  0  0  0  0  0  0  0  0  0
  -41.0861   56.9912   63.3395 O   0  0  0  0  0  0  0  0  0  0  0  0
  -40.9149   56.1306   62.1920 C   0  0  0  0  0  0  0  0  0  0  0  0
  -41.4300   56.7794   60.9247 C   0  0  0  0  0  0  0  0  0  0  0  0
  -42.3852   57.8065   61.2230 O   0  0  0  0  0  0  0  0  0  0  0  0
  -41.9541   58.5109   61.7319 H   0  0  0  0  0  0  0  0  0  0  0  0
  -40.3210   57.3554   60.0757 C   0  0  0  0  0  0  0  0  0  0  0  0
  -39.4077   58.1621   60.8582 O   0  0  0  0  0  0  0  0  0  0  0  0
  -39.4135   59.7150   61.2633 P   0  0  0  0  0  0  0  0  0  0  0  0
  -40.7032   60.3414   60.7353 O   0  0  0  0  0  0  0  0  0  0  0  0
  -38.2654   60.3798   60.6089 O   0  0  0  0  0  0  0  0  0  0  0  0
  -38.3205   60.2498   59.6492 H   0  0  0  0  0  0  0  0  0  0  0  0
  -39.3583   59.9116   62.8953 O   0  0  0  0  0  0  0  0  0  0  0  0
  -38.1675   60.1916   63.6807 C   0  0  0  0  0  0  0  0  0  0  0  0
  -37.7180   58.9484   64.4076 C   0  0  0  0  0  0  0  0  0  0  0  0
  -36.3350   58.4264   64.0648 N   0  0  0  0  0  0  0  0  0  0  0  0
  -36.0933   57.1084   64.7276 C   0  0  0  0  0  0  0  0  0  0  0  0
  -35.3201   59.4080   64.5514 C   0  0  0  0  0  0  0  0  0  0  0  0
  -36.1899   58.2560   62.5793 C   0  0  0  0  0  0  0  0  0  0  0  0
 34 33  1  0  0  0
 34 35  1  0  0  0
 34 36  1  0  0  0
 34 37  1  0  0  0
 22 23  1  0  0  0
 22 25  1  0  0  0
 22 21  1  0  0  0
 23 24  1  0  0  0
 27 26  1  0  0  0
 27 28  2  0  0  0
 27 31  1  0  0  0
 27 29  1  0  0  0
 25 26  1  0  0  0
 32 33  1  0  0  0
 32 31  1  0  0  0
 29 30  1  0  0  0
 20 21  1  0  0  0
 20  2  1  0  0  0
  1  2  2  0  0  0
  2  3  1  0  0  0
  3  4  1  0  0  0
  4  5  1  0  0  0
  5  6  1  0  0  0
  6  7  1  0  0  0
  7  8  1  0  0  0
  8  9  1  0  0  0
  9 10  1  0  0  0
 10 11  2  0  0  0
 11 12  1  0  0  0
 12 13  1  0  0  0
 13 14  1  0  0  0
 14 15  1  0  0  0
 15 16  1  0  0  0
 16 17  1  0  0  0
 17 18  1  0  0  0
 18 19  1  0  0  0
M  CHG 1  28  -1
M  END
> <minimizedAffinity>
-7.83045

> <CNNscore>
0.5979739428

> <CNNaffinity>
6.8152785301

> <CNN_VS>
4.0753588676

> <CNNaffinity_variance>
0.2613857388

$$$$
/media/chris/experiments/cd1a-new-docking/inputs/ligands/4x6e_ligand.pdb


 37 36  0  0  0  0  0  0  0  0999 V2000
  -39.2531   60.9212   66.1290 O   0  0  0  0  0  0  0  0  0  0  0  0
  -39.8994   60.5275   65.1898 C   0  0  0  0  0  0  0  0  0  0  0  0
  -41.0163   59.5320   65.2628 C   0  0  0  0  0  0  0  0  0  0  0  0
  -41.9501   59.7645   66.4446 C   0  0  0  0  0  0  0  0  0  0  0  0
  -43.0315   58.7096   66.6037 C   0  0  0  0  0  0  0  0  0  0  0  0
  -44.4146   59.1977   66.2102 C   0  0  0  0  0  0  0  0  0  0  0  0
  -45.3620   58.0657   65.8515 C   0  0  0  0  0  0  0  0  0  0  0  0
  -46.5709   58.5530   65.0843 C   0  0  0  0  0  0  0  0  0  0  0  0
  -47.7594   58.9302   65.9451 C   0  0  0  0  0  0  0  0  0  0  0  0
  -48.9934   58.1731   65.6350 C   0  0  0  0  0  0  0  0  0  0  0  0
  -49.9769   58.5773   64.8578 C   0  0  0  0  0  0  0  0  0  0  0  0
  -50.0530   59.8565   64.0892 C   0  0  0  0  0  0  0  0  0  0  0  0
  -50.7563   59.6256   62.7508 C   0  0  0  0  0  0  0  0  0  0  0  0
  -50.7680   58.1852   62.2603 C   0  0  0  0  0  0  0  0  0  0  0  0
  -50.5237   58.0115   60.7661 C   0  0  0  0  0  0  0  0  0  0  0  0
  -49.5765   56.8634   60.4331 C   0  0  0  0  0  0  0  0  0  0  0  0
  -48.8887   57.0083   59.0849 C   0  0  0  0  0  0  0  0  0  0  0  0
  -47.7747   56.0092   58.8112 C   0  0  0  0  0  0  0  0  0  0  0  0
  -47.2977   56.0472   57.3918 C   0  0  0  0  0  0  0  0  0  0  0  0
  -39.7200   60.9360   63.9302 O   0  0  0  0  0  0  0  0  0  0  0  0
  -40.2426   60.1044   62.8710 C   0  0  0  0  0  0  0  0  0  0  0  0
  -39.1833   59.7831   61.8380 C   0  0  0  0  0  0  0  0  0  0  0  0
  -38.3119   60.9025   61.6280 O   0  0  0  0  0  0  0  0  0  0  0  0
  -37.8370   61.1012   62.4502 H   0  0  0  0  0  0  0  0  0  0  0  0
  -38.3627   58.5694   62.2067 C   0  0  0  0  0  0  0  0  0  0  0  0
  -37.1751   58.9291   62.9533 O   0  0  0  0  0  0  0  0  0  0  0  0
  -36.6115   58.4567   64.3799 P   0  0  0  0  0  0  0  0  0  0  0  0
  -35.5032   57.4327   64.1401 O   0  0  0  0  0  0  0  0  0  0  0  0
  -37.7056   57.7993   65.1276 O   0  0  0  0  0  0  0  0  0  0  0  0
  -38.0543   57.0593   64.6063 H   0  0  0  0  0  0  0  0  0  0  0  0
  -35.9908   59.7203   65.2303 O   0  0  0  0  0  0  0  0  0  0  0  0
  -34.8261   60.5074   64.8600 C   0  0  0  0  0  0  0  0  0  0  0  0
  -35.2526   61.8622   64.3515 C   0  0  0  0  0  0  0  0  0  0  0  0
  -34.9820   63.0439   65.2642 N   0  0  0  0  0  0  0  0  0  0  0  0
  -34.2678   64.1270   64.5213 C   0  0  0  0  0  0  0  0  0  0  0  0
  -34.1241   62.5853   66.3973 C   0  0  0  0  0  0  0  0  0  0  0  0
  -36.2696   63.5958   65.8067 C   0  0  0  0  0  0  0  0  0  0  0  0
 34 33  1  0  0  0
 34 35  1  0  0  0
 34 36  1  0  0  0
 34 37  1  0  0  0
 22 23  1  0  0  0
 22 25  1  0  0  0
 22 21  1  0  0  0
 23 24  1  0  0  0
 27 26  1  0  0  0
 27 28  2  0  0  0
 27 31  1  0  0  0
 27 29  1  0  0  0
 25 26  1  0  0  0
 32 33  1  0  0  0
 32 31  1  0  0  0
 29 30  1  0  0  0
 20 21  1  0  0  0
 20  2  1  0  0  0
  1  2  2  0  0  0
  2  3  1  0  0  0
  3  4  1  0  0  0
  4  5  1  0  0  0
  5  6  1  0  0  0
  6  7  1  0  0  0
  7  8  1  0  0  0
  8  9  1  0  0  0
  9 10  1  0  0  0
 10 11  2  0  0  0
 11 12  1  0  0  0
 12 13  1  0  0  0
 13 14  1  0  0  0
 14 15  1  0  0  0
 15 16  1  0  0  0
 16 17  1  0  0  0
 17 18  1  0  0  0
 18 19  1  0  0  0
M  CHG 1  28  -1
M  END
> <minimizedAffinity>
-7.63556

> <CNNscore>
0.5499487519

> <CNNaffinity>
6.5049996376

> <CNN_VS>
3.5774164200

> <CNNaffinity_variance>
0.7575844526

$$$$
/media/chris/experiments/cd1a-new-docking/inputs/ligands/4x6e_ligand.pdb


 37 36  0  0  0  0  0  0  0  0999 V2000
  -38.8450   59.2141   59.9995 O   0  0  0  0  0  0  0  0  0  0  0  0
  -39.1106   58.7986   61.1003 C   0  0  0  0  0  0  0  0  0  0  0  0
  -40.2798   57.9253   61.4381 C   0  0  0  0  0  0  0  0  0  0  0  0
  -41.5881   58.4120   60.8264 C   0  0  0  0  0  0  0  0  0  0  0  0
  -42.4581   59.2206   61.7734 C   0  0  0  0  0  0  0  0  0  0  0  0
  -43.2785   58.3635   62.7211 C   0  0  0  0  0  0  0  0  0  0  0  0
  -44.2813   59.1685   63.5297 C   0  0  0  0  0  0  0  0  0  0  0  0
  -44.9639   58.3330   64.5897 C   0  0  0  0  0  0  0  0  0  0  0  0
  -46.2307   58.9397   65.1580 C   0  0  0  0  0  0  0  0  0  0  0  0
  -46.9607   59.8109   64.2092 C   0  0  0  0  0  0  0  0  0  0  0  0
  -48.1358   59.5581   63.6707 C   0  0  0  0  0  0  0  0  0  0  0  0
  -49.0075   58.3707   63.9217 C   0  0  0  0  0  0  0  0  0  0  0  0
  -50.1054   58.2896   62.8599 C   0  0  0  0  0  0  0  0  0  0  0  0
  -49.8535   59.1020   61.5981 C   0  0  0  0  0  0  0  0  0  0  0  0
  -50.2080   58.3951   60.2954 C   0  0  0  0  0  0  0  0  0  0  0  0
  -49.8692   56.9080   60.2976 C   0  0  0  0  0  0  0  0  0  0  0  0
  -48.4911   56.5931   59.7377 C   0  0  0  0  0  0  0  0  0  0  0  0
  -48.3067   56.8880   58.2567 C   0  0  0  0  0  0  0  0  0  0  0  0
  -47.4772   55.8544   57.5587 C   0  0  0  0  0  0  0  0  0  0  0  0
  -38.3843   59.0497   62.1935 O   0  0  0  0  0  0  0  0  0  0  0  0
  -37.2582   58.1872   62.4672 C   0  0  0  0  0  0  0  0  0  0  0  0
  -37.2063   57.7811   63.9249 C   0  0  0  0  0  0  0  0  0  0  0  0
  -35.8581   57.7845   64.4132 O   0  0  0  0  0  0  0  0  0  0  0  0
  -35.5009   58.6853   64.3702 H   0  0  0  0  0  0  0  0  0  0  0  0
  -38.0616   58.6634   64.8038 C   0  0  0  0  0  0  0  0  0  0  0  0
  -37.3449   59.8430   65.2422 O   0  0  0  0  0  0  0  0  0  0  0  0
  -37.3360   61.3594   64.7165 P   0  0  0  0  0  0  0  0  0  0  0  0
  -37.4624   62.2847   65.9256 O   0  0  0  0  0  0  0  0  0  0  0  0
  -38.5115   61.5646   63.8421 O   0  0  0  0  0  0  0  0  0  0  0  0
  -39.3205   61.3499   64.3323 H   0  0  0  0  0  0  0  0  0  0  0  0
  -35.9399   61.7128   63.9221 O   0  0  0  0  0  0  0  0  0  0  0  0
  -34.6296   61.1531   64.2103 C   0  0  0  0  0  0  0  0  0  0  0  0
  -33.5636   62.2072   64.0407 C   0  0  0  0  0  0  0  0  0  0  0  0
  -33.4829   63.2684   65.1224 N   0  0  0  0  0  0  0  0  0  0  0  0
  -33.8883   62.7007   66.4447 C   0  0  0  0  0  0  0  0  0  0  0  0
  -34.4110   64.3833   64.7675 C   0  0  0  0  0  0  0  0  0  0  0  0
  -32.0831   63.8023   65.2326 C   0  0  0  0  0  0  0  0  0  0  0  0
 34 33  1  0  0  0
 34 35  1  0  0  0
 34 36  1  0  0  0
 34 37  1  0  0  0
 22 23  1  0  0  0
 22 25  1  0  0  0
 22 21  1  0  0  0
 23 24  1  0  0  0
 27 26  1  0  0  0
 27 28  2  0  0  0
 27 31  1  0  0  0
 27 29  1  0  0  0
 25 26  1  0  0  0
 32 33  1  0  0  0
 32 31  1  0  0  0
 29 30  1  0  0  0
 20 21  1  0  0  0
 20  2  1  0  0  0
  1  2  2  0  0  0
  2  3  1  0  0  0
  3  4  1  0  0  0
  4  5  1  0  0  0
  5  6  1  0  0  0
  6  7  1  0  0  0
  7  8  1  0  0  0
  8  9  1  0  0  0
  9 10  1  0  0  0
 10 11  2  0  0  0
 11 12  1  0  0  0
 12 13  1  0  0  0
 13 14  1  0  0  0
 14 15  1  0  0  0
 15 16  1  0  0  0
 16 17  1  0  0  0
 17 18  1  0  0  0
 18 19  1  0  0  0
M  CHG 1  28  -1
M  END
> <minimizedAffinity>
-7.42078

> <CNNscore>
0.5134544373

> <CNNaffinity>
6.4873185158

> <CNN_VS>
3.3309423923

> <CNNaffinity_variance>
0.2407794297

$$$$
/media/chris/experiments/cd1a-new-docking/inputs/ligands/4x6e_ligand.pdb


 37 36  0  0  0  0  0  0  0  0999 V2000
  -42.2550   60.4325   60.3680 O   0  0  0  0  0  0  0  0  0  0  0  0
  -42.2836   60.2127   61.5536 C   0  0  0  0  0  0  0  0  0  0  0  0
  -43.3182   60.7288   62.5059 C   0  0  0  0  0  0  0  0  0  0  0  0
  -43.9053   59.6428   63.3995 C   0  0  0  0  0  0  0  0  0  0  0  0
  -44.9994   60.1272   64.3354 C   0  0  0  0  0  0  0  0  0  0  0  0
  -44.9035   59.5398   65.7325 C   0  0  0  0  0  0  0  0  0  0  0  0
  -46.2481   59.4599   66.4347 C   0  0  0  0  0  0  0  0  0  0  0  0
  -47.3422   60.1557   65.6561 C   0  0  0  0  0  0  0  0  0  0  0  0
  -48.7346   59.9877   66.2294 C   0  0  0  0  0  0  0  0  0  0  0  0
  -49.4531   58.7936   65.7292 C   0  0  0  0  0  0  0  0  0  0  0  0
  -50.3398   58.7733   64.7555 C   0  0  0  0  0  0  0  0  0  0  0  0
  -50.7872   59.9266   63.9173 C   0  0  0  0  0  0  0  0  0  0  0  0
  -50.9312   59.4922   62.4578 C   0  0  0  0  0  0  0  0  0  0  0  0
  -51.0052   57.9896   62.2289 C   0  0  0  0  0  0  0  0  0  0  0  0
  -50.9063   57.5544   60.7718 C   0  0  0  0  0  0  0  0  0  0  0  0
  -49.4750   57.3106   60.3047 C   0  0  0  0  0  0  0  0  0  0  0  0
  -49.1735   57.8845   58.9294 C   0  0  0  0  0  0  0  0  0  0  0  0
  -48.2090   57.0699   58.0807 C   0  0  0  0  0  0  0  0  0  0  0  0
  -47.6144   55.9147   58.8261 C   0  0  0  0  0  0  0  0  0  0  0  0
  -41.3912   59.4560   62.1991 O   0  0  0  0  0  0  0  0  0  0  0  0
  -40.0247   59.9217   62.2514 C   0  0  0  0  0  0  0  0  0  0  0  0
  -39.1477   59.1944   61.2542 C   0  0  0  0  0  0  0  0  0  0  0  0
  -38.2175   60.0928   60.6345 O   0  0  0  0  0  0  0  0  0  0  0  0
  -37.6199   60.4544   61.3077 H   0  0  0  0  0  0  0  0  0  0  0  0
  -38.3949   58.0417   61.8762 C   0  0  0  0  0  0  0  0  0  0  0  0
  -36.9936   58.3539   62.0665 O   0  0  0  0  0  0  0  0  0  0  0  0
  -36.0967   58.5357   63.3850 P   0  0  0  0  0  0  0  0  0  0  0  0
  -35.0778   57.3981   63.4299 O   0  0  0  0  0  0  0  0  0  0  0  0
  -36.9727   58.4299   64.5723 O   0  0  0  0  0  0  0  0  0  0  0  0
  -37.4362   57.5778   64.5573 H   0  0  0  0  0  0  0  0  0  0  0  0
  -35.2905   59.9692   63.3715 O   0  0  0  0  0  0  0  0  0  0  0  0
  -34.8416   60.7061   64.5414 C   0  0  0  0  0  0  0  0  0  0  0  0
  -34.5638   62.1436   64.1771 C   0  0  0  0  0  0  0  0  0  0  0  0
  -34.7444   63.1688   65.2812 N   0  0  0  0  0  0  0  0  0  0  0  0
  -36.1940   63.3417   65.6036 C   0  0  0  0  0  0  0  0  0  0  0  0
  -34.1916   64.4753   64.8146 C   0  0  0  0  0  0  0  0  0  0  0  0
  -34.0195   62.7372   66.5241 C   0  0  0  0  0  0  0  0  0  0  0  0
 34 33  1  0  0  0
 34 35  1  0  0  0
 34 36  1  0  0  0
 34 37  1  0  0  0
 22 23  1  0  0  0
 22 25  1  0  0  0
 22 21  1  0  0  0
 23 24  1  0  0  0
 27 26  1  0  0  0
 27 28  2  0  0  0
 27 31  1  0  0  0
 27 29  1  0  0  0
 25 26  1  0  0  0
 32 33  1  0  0  0
 32 31  1  0  0  0
 29 30  1  0  0  0
 20 21  1  0  0  0
 20  2  1  0  0  0
  1  2  2  0  0  0
  2  3  1  0  0  0
  3  4  1  0  0  0
  4  5  1  0  0  0
  5  6  1  0  0  0
  6  7  1  0  0  0
  7  8  1  0  0  0
  8  9  1  0  0  0
  9 10  1  0  0  0
 10 11  2  0  0  0
 11 12  1  0  0  0
 12 13  1  0  0  0
 13 14  1  0  0  0
 14 15  1  0  0  0
 15 16  1  0  0  0
 16 17  1  0  0  0
 17 18  1  0  0  0
 18 19  1  0  0  0
M  CHG 1  28  -1
M  END
> <minimizedAffinity>
-8.12792

> <CNNscore>
0.4838910699

> <CNNaffinity>
6.3724331856

> <CNN_VS>
3.0835635662

> <CNNaffinity_variance>
0.4518390298

$$$$
