/media/chris/experiments/cd1a-new-docking/inputs/ligands/4x6e_ligand.pdb


 37 36  0  0  0  0  0  0  0  0999 V2000
  -42.4579   56.4954   64.8628 O   0  0  0  0  0  0  0  0  0  0  0  0
  -43.0533   57.2362   65.6054 C   0  0  0  0  0  0  0  0  0  0  0  0
  -44.5150   57.5536   65.5242 C   0  0  0  0  0  0  0  0  0  0  0  0
  -44.8863   58.3545   64.2819 C   0  0  0  0  0  0  0  0  0  0  0  0
  -45.7179   59.5943   64.5630 C   0  0  0  0  0  0  0  0  0  0  0  0
  -46.2437   59.6596   65.9861 C   0  0  0  0  0  0  0  0  0  0  0  0
  -47.7600   59.7200   66.0547 C   0  0  0  0  0  0  0  0  0  0  0  0
  -48.3969   58.3653   65.8377 C   0  0  0  0  0  0  0  0  0  0  0  0
  -49.9003   58.3932   65.6506 C   0  0  0  0  0  0  0  0  0  0  0  0
  -50.4480   59.7390   65.3665 C   0  0  0  0  0  0  0  0  0  0  0  0
  -50.9758   60.1371   64.2273 C   0  0  0  0  0  0  0  0  0  0  0  0
  -51.1776   59.3215   62.9918 C   0  0  0  0  0  0  0  0  0  0  0  0
  -49.8605   59.1932   62.2246 C   0  0  0  0  0  0  0  0  0  0  0  0
  -49.5406   57.7984   61.7071 C   0  0  0  0  0  0  0  0  0  0  0  0
  -50.3947   57.3354   60.5330 C   0  0  0  0  0  0  0  0  0  0  0  0
  -49.7833   57.6530   59.1723 C   0  0  0  0  0  0  0  0  0  0  0  0
  -48.4101   57.0359   58.9589 C   0  0  0  0  0  0  0  0  0  0  0  0
  -47.8919   57.0786   57.5292 C   0  0  0  0  0  0  0  0  0  0  0  0
  -47.5750   55.7187   56.9868 C   0  0  0  0  0  0  0  0  0  0  0  0
  -42.4917   57.8822   66.6315 O   0  0  0  0  0  0  0  0  0  0  0  0
  -42.3653   59.3180   66.5363 C   0  0  0  0  0  0  0  0  0  0  0  0
  -41.2851   59.7205   65.5547 C   0  0  0  0  0  0  0  0  0  0  0  0
  -41.6079   60.9617   64.9133 O   0  0  0  0  0  0  0  0  0  0  0  0
  -41.6473   61.6680   65.5772 H   0  0  0  0  0  0  0  0  0  0  0  0
  -39.9241   59.8280   66.2016 C   0  0  0  0  0  0  0  0  0  0  0  0
  -39.1425   60.9076   65.6349 O   0  0  0  0  0  0  0  0  0  0  0  0
  -38.2584   61.0158   64.2999 P   0  0  0  0  0  0  0  0  0  0  0  0
  -37.3144   59.8155   64.2537 O   0  0  0  0  0  0  0  0  0  0  0  0
  -37.4466   62.2506   64.3681 O   0  0  0  0  0  0  0  0  0  0  0  0
  -36.9011   62.2351   65.1701 H   0  0  0  0  0  0  0  0  0  0  0  0
  -39.2001   61.0017   62.9515 O   0  0  0  0  0  0  0  0  0  0  0  0
  -38.8258   60.4596   61.6557 C   0  0  0  0  0  0  0  0  0  0  0  0
  -39.8550   59.4585   61.1923 C   0  0  0  0  0  0  0  0  0  0  0  0
  -39.3252   58.1403   60.6592 N   0  0  0  0  0  0  0  0  0  0  0  0
  -38.7313   57.3286   61.7654 C   0  0  0  0  0  0  0  0  0  0  0  0
  -38.2670   58.4263   59.6449 C   0  0  0  0  0  0  0  0  0  0  0  0
  -40.4294   57.3500   60.0169 C   0  0  0  0  0  0  0  0  0  0  0  0
 34 33  1  0  0  0
 34 35  1  0  0  0
 34 36  1  0  0  0
 34 37  1  0  0  0
 22 23  1  0  0  0
 22 25  1  0  0  0
 22 21  1  0  0  0
 23 24  1  0  0  0
 27 26  1  0  0  0
 27 28  2  0  0  0
 27 31  1  0  0  0
 27 29  1  0  0  0
 25 26  1  0  0  0
 32 33  1  0  0  0
 32 31  1  0  0  0
 29 30  1  0  0  0
 20 21  1  0  0  0
 20  2  1  0  0  0
  1  2  2  0  0  0
  2  3  1  0  0  0
  3  4  1  0  0  0
  4  5  1  0  0  0
  5  6  1  0  0  0
  6  7  1  0  0  0
  7  8  1  0  0  0
  8  9  1  0  0  0
  9 10  1  0  0  0
 10 11  2  0  0  0
 11 12  1  0  0  0
 12 13  1  0  0  0
 13 14  1  0  0  0
 14 15  1  0  0  0
 15 16  1  0  0  0
 16 17  1  0  0  0
 17 18  1  0  0  0
 18 19  1  0  0  0
M  CHG 1  28  -1
M  END
> <minimizedAffinity>
-8.11776

> <CNNscore>
0.8316659331

> <CNNaffinity>
7.0454940796

> <CNN_VS>
5.8594975471

> <CNNaffinity_variance>
0.1682348996

$$$$
/media/chris/experiments/cd1a-new-docking/inputs/ligands/4x6e_ligand.pdb


 37 36  0  0  0  0  0  0  0  0999 V2000
  -41.5792   61.2736   66.7071 O   0  0  0  0  0  0  0  0  0  0  0  0
  -41.6081   60.0809   66.5302 C   0  0  0  0  0  0  0  0  0  0  0  0
  -42.6703   59.1550   67.0383 C   0  0  0  0  0  0  0  0  0  0  0  0
  -44.0618   59.4966   66.5191 C   0  0  0  0  0  0  0  0  0  0  0  0
  -44.6254   58.4891   65.5318 C   0  0  0  0  0  0  0  0  0  0  0  0
  -45.6807   59.0725   64.6088 C   0  0  0  0  0  0  0  0  0  0  0  0
  -46.6550   59.9894   65.3284 C   0  0  0  0  0  0  0  0  0  0  0  0
  -47.6656   59.2193   66.1488 C   0  0  0  0  0  0  0  0  0  0  0  0
  -48.4722   58.2005   65.3694 C   0  0  0  0  0  0  0  0  0  0  0  0
  -49.9322   58.4459   65.3870 C   0  0  0  0  0  0  0  0  0  0  0  0
  -50.5886   59.2771   64.6041 C   0  0  0  0  0  0  0  0  0  0  0  0
  -50.0244   60.1203   63.5071 C   0  0  0  0  0  0  0  0  0  0  0  0
  -50.6507   59.7296   62.1675 C   0  0  0  0  0  0  0  0  0  0  0  0
  -50.8781   58.2389   61.9640 C   0  0  0  0  0  0  0  0  0  0  0  0
  -49.7032   57.4858   61.3517 C   0  0  0  0  0  0  0  0  0  0  0  0
  -49.7568   57.4072   59.8295 C   0  0  0  0  0  0  0  0  0  0  0  0
  -48.5467   56.7278   59.2083 C   0  0  0  0  0  0  0  0  0  0  0  0
  -48.2038   57.1733   57.7947 C   0  0  0  0  0  0  0  0  0  0  0  0
  -47.4636   56.1261   57.0205 C   0  0  0  0  0  0  0  0  0  0  0  0
  -40.6907   59.4020   65.8350 O   0  0  0  0  0  0  0  0  0  0  0  0
  -40.0019   60.0953   64.7712 C   0  0  0  0  0  0  0  0  0  0  0  0
  -38.5739   60.4250   65.1513 C   0  0  0  0  0  0  0  0  0  0  0  0
  -38.5316   61.4284   66.1749 O   0  0  0  0  0  0  0  0  0  0  0  0
  -38.9542   61.0880   66.9790 H   0  0  0  0  0  0  0  0  0  0  0  0
  -37.7993   59.2103   65.6059 C   0  0  0  0  0  0  0  0  0  0  0  0
  -37.8079   58.1615   64.6070 O   0  0  0  0  0  0  0  0  0  0  0  0
  -36.9941   57.9674   63.2375 P   0  0  0  0  0  0  0  0  0  0  0  0
  -35.7356   57.1561   63.5409 O   0  0  0  0  0  0  0  0  0  0  0  0
  -36.5865   59.2981   62.7360 O   0  0  0  0  0  0  0  0  0  0  0  0
  -36.0624   59.7527   63.4139 H   0  0  0  0  0  0  0  0  0  0  0  0
  -37.8868   57.1613   62.1158 O   0  0  0  0  0  0  0  0  0  0  0  0
  -38.8826   57.7495   61.2352 C   0  0  0  0  0  0  0  0  0  0  0  0
  -40.0229   58.3177   62.0435 C   0  0  0  0  0  0  0  0  0  0  0  0
  -41.4082   58.1997   61.4357 N   0  0  0  0  0  0  0  0  0  0  0  0
  -42.4428   58.0829   62.5086 C   0  0  0  0  0  0  0  0  0  0  0  0
  -41.4526   56.9744   60.5830 C   0  0  0  0  0  0  0  0  0  0  0  0
  -41.7178   59.4039   60.5928 C   0  0  0  0  0  0  0  0  0  0  0  0
 34 33  1  0  0  0
 34 35  1  0  0  0
 34 36  1  0  0  0
 34 37  1  0  0  0
 22 23  1  0  0  0
 22 25  1  0  0  0
 22 21  1  0  0  0
 23 24  1  0  0  0
 27 26  1  0  0  0
 27 28  2  0  0  0
 27 31  1  0  0  0
 27 29  1  0  0  0
 25 26  1  0  0  0
 32 33  1  0  0  0
 32 31  1  0  0  0
 29 30  1  0  0  0
 20 21  1  0  0  0
 20  2  1  0  0  0
  1  2  2  0  0  0
  2  3  1  0  0  0
  3  4  1  0  0  0
  4  5  1  0  0  0
  5  6  1  0  0  0
  6  7  1  0  0  0
  7  8  1  0  0  0
  8  9  1  0  0  0
  9 10  1  0  0  0
 10 11  2  0  0  0
 11 12  1  0  0  0
 12 13  1  0  0  0
 13 14  1  0  0  0
 14 15  1  0  0  0
 15 16  1  0  0  0
 16 17  1  0  0  0
 17 18  1  0  0  0
 18 19  1  0  0  0
M  CHG 1  28  -1
M  END
> <minimizedAffinity>
-7.87166

> <CNNscore>
0.7809652686

> <CNNaffinity>
7.0829734802

> <CNN_VS>
5.5315561295

> <CNNaffinity_variance>
0.2365896255

$$$$
/media/chris/experiments/cd1a-new-docking/inputs/ligands/4x6e_ligand.pdb


 37 36  0  0  0  0  0  0  0  0999 V2000
  -41.4368   61.1653   66.3437 O   0  0  0  0  0  0  0  0  0  0  0  0
  -40.9548   60.0713   66.1838 C   0  0  0  0  0  0  0  0  0  0  0  0
  -41.7073   58.7770   66.2337 C   0  0  0  0  0  0  0  0  0  0  0  0
  -43.0613   58.8971   66.9230 C   0  0  0  0  0  0  0  0  0  0  0  0
  -44.2418   58.9838   65.9710 C   0  0  0  0  0  0  0  0  0  0  0  0
  -45.1554   57.7721   66.0291 C   0  0  0  0  0  0  0  0  0  0  0  0
  -46.6169   58.1215   65.8070 C   0  0  0  0  0  0  0  0  0  0  0  0
  -47.0782   59.2490   66.7035 C   0  0  0  0  0  0  0  0  0  0  0  0
  -48.3350   59.9562   66.2386 C   0  0  0  0  0  0  0  0  0  0  0  0
  -48.2237   60.5610   64.8918 C   0  0  0  0  0  0  0  0  0  0  0  0
  -49.1794   60.6223   63.9876 C   0  0  0  0  0  0  0  0  0  0  0  0
  -50.5866   60.1397   64.1269 C   0  0  0  0  0  0  0  0  0  0  0  0
  -51.0348   59.4450   62.8400 C   0  0  0  0  0  0  0  0  0  0  0  0
  -49.9244   58.7893   62.0322 C   0  0  0  0  0  0  0  0  0  0  0  0
  -50.3606   57.6009   61.1839 C   0  0  0  0  0  0  0  0  0  0  0  0
  -50.3868   57.8971   59.6880 C   0  0  0  0  0  0  0  0  0  0  0  0
  -49.0697   57.6117   58.9841 C   0  0  0  0  0  0  0  0  0  0  0  0
  -48.3875   56.3112   59.3810 C   0  0  0  0  0  0  0  0  0  0  0  0
  -47.3855   55.8495   58.3677 C   0  0  0  0  0  0  0  0  0  0  0  0
  -39.6630   59.8502   65.9228 O   0  0  0  0  0  0  0  0  0  0  0  0
  -39.3198   58.6617   65.1770 C   0  0  0  0  0  0  0  0  0  0  0  0
  -38.8387   58.9968   63.7811 C   0  0  0  0  0  0  0  0  0  0  0  0
  -39.0564   57.8998   62.8837 O   0  0  0  0  0  0  0  0  0  0  0  0
  -40.0082   57.7279   62.8081 H   0  0  0  0  0  0  0  0  0  0  0  0
  -39.4934   60.2393   63.2245 C   0  0  0  0  0  0  0  0  0  0  0  0
  -38.5151   61.2207   62.8033 O   0  0  0  0  0  0  0  0  0  0  0  0
  -37.2903   61.9217   63.5675 P   0  0  0  0  0  0  0  0  0  0  0  0
  -37.7246   62.2076   65.0041 O   0  0  0  0  0  0  0  0  0  0  0  0
  -36.9904   63.2082   62.9017 O   0  0  0  0  0  0  0  0  0  0  0  0
  -37.7862   63.7628   62.8963 H   0  0  0  0  0  0  0  0  0  0  0  0
  -35.9642   60.9492   63.5983 O   0  0  0  0  0  0  0  0  0  0  0  0
  -34.8459   61.0611   64.5203 C   0  0  0  0  0  0  0  0  0  0  0  0
  -33.9353   62.1886   64.1011 C   0  0  0  0  0  0  0  0  0  0  0  0
  -33.6586   63.2579   65.1416 N   0  0  0  0  0  0  0  0  0  0  0  0
  -32.2082   63.6208   65.1470 C   0  0  0  0  0  0  0  0  0  0  0  0
  -34.0303   62.7235   66.4857 C   0  0  0  0  0  0  0  0  0  0  0  0
  -34.4661   64.4920   64.8561 C   0  0  0  0  0  0  0  0  0  0  0  0
 34 33  1  0  0  0
 34 35  1  0  0  0
 34 36  1  0  0  0
 34 37  1  0  0  0
 22 23  1  0  0  0
 22 25  1  0  0  0
 22 21  1  0  0  0
 23 24  1  0  0  0
 27 26  1  0  0  0
 27 28  2  0  0  0
 27 31  1  0  0  0
 27 29  1  0  0  0
 25 26  1  0  0  0
 32 33  1  0  0  0
 32 31  1  0  0  0
 29 30  1  0  0  0
 20 21  1  0  0  0
 20  2  1  0  0  0
  1  2  2  0  0  0
  2  3  1  0  0  0
  3  4  1  0  0  0
  4  5  1  0  0  0
  5  6  1  0  0  0
  6  7  1  0  0  0
  7  8  1  0  0  0
  8  9  1  0  0  0
  9 10  1  0  0  0
 10 11  2  0  0  0
 11 12  1  0  0  0
 12 13  1  0  0  0
 13 14  1  0  0  0
 14 15  1  0  0  0
 15 16  1  0  0  0
 16 17  1  0  0  0
 17 18  1  0  0  0
 18 19  1  0  0  0
M  CHG 1  28  -1
M  END
> <minimizedAffinity>
-7.77387

> <CNNscore>
0.7794471979

> <CNNaffinity>
6.4684381485

> <CNN_VS>
5.0418062210

> <CNNaffinity_variance>
0.1452418268

$$$$
/media/chris/experiments/cd1a-new-docking/inputs/ligands/4x6e_ligand.pdb


 37 36  0  0  0  0  0  0  0  0999 V2000
  -40.0950   60.8706   66.3547 O   0  0  0  0  0  0  0  0  0  0  0  0
  -40.8899   60.3471   65.6138 C   0  0  0  0  0  0  0  0  0  0  0  0
  -41.3560   58.9266   65.7068 C   0  0  0  0  0  0  0  0  0  0  0  0
  -42.1661   58.6428   66.9661 C   0  0  0  0  0  0  0  0  0  0  0  0
  -43.3250   59.5985   67.1925 C   0  0  0  0  0  0  0  0  0  0  0  0
  -44.6428   59.0941   66.6311 C   0  0  0  0  0  0  0  0  0  0  0  0
  -45.0200   59.7587   65.3181 C   0  0  0  0  0  0  0  0  0  0  0  0
  -46.4912   60.1034   65.2534 C   0  0  0  0  0  0  0  0  0  0  0  0
  -47.3239   59.5489   66.3914 C   0  0  0  0  0  0  0  0  0  0  0  0
  -48.0548   58.3062   66.0543 C   0  0  0  0  0  0  0  0  0  0  0  0
  -49.3464   58.2061   65.8166 C   0  0  0  0  0  0  0  0  0  0  0  0
  -50.3486   59.3140   65.7924 C   0  0  0  0  0  0  0  0  0  0  0  0
  -50.6516   59.7187   64.3488 C   0  0  0  0  0  0  0  0  0  0  0  0
  -50.2762   58.6911   63.2911 C   0  0  0  0  0  0  0  0  0  0  0  0
  -51.1122   58.7424   62.0180 C   0  0  0  0  0  0  0  0  0  0  0  0
  -50.9175   57.5308   61.1123 C   0  0  0  0  0  0  0  0  0  0  0  0
  -50.5213   57.8880   59.6884 C   0  0  0  0  0  0  0  0  0  0  0  0
  -49.0815   57.5701   59.3138 C   0  0  0  0  0  0  0  0  0  0  0  0
  -48.6660   56.1916   59.7270 C   0  0  0  0  0  0  0  0  0  0  0  0
  -41.4894   60.9692   64.5944 O   0  0  0  0  0  0  0  0  0  0  0  0
  -41.1857   60.5174   63.2564 C   0  0  0  0  0  0  0  0  0  0  0  0
  -42.4410   60.1638   62.4871 C   0  0  0  0  0  0  0  0  0  0  0  0
  -43.3861   61.2417   62.5196 O   0  0  0  0  0  0  0  0  0  0  0  0
  -43.0071   62.0176   62.0775 H   0  0  0  0  0  0  0  0  0  0  0  0
  -42.1555   59.7887   61.0518 C   0  0  0  0  0  0  0  0  0  0  0  0
  -40.7903   59.3387   60.8744 O   0  0  0  0  0  0  0  0  0  0  0  0
  -40.1228   57.8793   60.8936 P   0  0  0  0  0  0  0  0  0  0  0  0
  -40.5807   57.1284   59.6444 O   0  0  0  0  0  0  0  0  0  0  0  0
  -40.6103   57.1511   62.0854 O   0  0  0  0  0  0  0  0  0  0  0  0
  -41.5793   57.1121   62.0667 H   0  0  0  0  0  0  0  0  0  0  0  0
  -38.4806   57.9684   60.8864 O   0  0  0  0  0  0  0  0  0  0  0  0
  -37.6646   58.7452   61.8050 C   0  0  0  0  0  0  0  0  0  0  0  0
  -36.7127   57.8415   62.5489 C   0  0  0  0  0  0  0  0  0  0  0  0
  -36.4469   58.1874   64.0022 N   0  0  0  0  0  0  0  0  0  0  0  0
  -35.8264   57.0271   64.7119 C   0  0  0  0  0  0  0  0  0  0  0  0
  -37.7462   58.5199   64.6590 C   0  0  0  0  0  0  0  0  0  0  0  0
  -35.5226   59.3674   64.1021 C   0  0  0  0  0  0  0  0  0  0  0  0
 34 33  1  0  0  0
 34 35  1  0  0  0
 34 36  1  0  0  0
 34 37  1  0  0  0
 22 23  1  0  0  0
 22 25  1  0  0  0
 22 21  1  0  0  0
 23 24  1  0  0  0
 27 26  1  0  0  0
 27 28  2  0  0  0
 27 31  1  0  0  0
 27 29  1  0  0  0
 25 26  1  0  0  0
 32 33  1  0  0  0
 32 31  1  0  0  0
 29 30  1  0  0  0
 20 21  1  0  0  0
 20  2  1  0  0  0
  1  2  2  0  0  0
  2  3  1  0  0  0
  3  4  1  0  0  0
  4  5  1  0  0  0
  5  6  1  0  0  0
  6  7  1  0  0  0
  7  8  1  0  0  0
  8  9  1  0  0  0
  9 10  1  0  0  0
 10 11  2  0  0  0
 11 12  1  0  0  0
 12 13  1  0  0  0
 13 14  1  0  0  0
 14 15  1  0  0  0
 15 16  1  0  0  0
 16 17  1  0  0  0
 17 18  1  0  0  0
 18 19  1  0  0  0
M  CHG 1  28  -1
M  END
> <minimizedAffinity>
-7.81213

> <CNNscore>
0.6066039205

> <CNNaffinity>
6.8105325699

> <CNN_VS>
4.1312956810

> <CNNaffinity_variance>
0.3912039697

$$$$
/media/chris/experiments/cd1a-new-docking/inputs/ligands/4x6e_ligand.pdb


 37 36  0  0  0  0  0  0  0  0999 V2000
  -41.8211   55.9300   64.7127 O   0  0  0  0  0  0  0  0  0  0  0  0
  -42.7100   56.7395   64.8100 C   0  0  0  0  0  0  0  0  0  0  0  0
  -43.4193   57.0994   66.0793 C   0  0  0  0  0  0  0  0  0  0  0  0
  -42.9188   58.3992   66.6979 C   0  0  0  0  0  0  0  0  0  0  0  0
  -43.9702   59.4913   66.7937 C   0  0  0  0  0  0  0  0  0  0  0  0
  -45.3009   59.1054   66.1719 C   0  0  0  0  0  0  0  0  0  0  0  0
  -45.5895   59.8518   64.8807 C   0  0  0  0  0  0  0  0  0  0  0  0
  -47.0085   59.6394   64.4022 C   0  0  0  0  0  0  0  0  0  0  0  0
  -48.0635   59.7233   65.4866 C   0  0  0  0  0  0  0  0  0  0  0  0
  -49.0285   58.6004   65.4775 C   0  0  0  0  0  0  0  0  0  0  0  0
  -50.1749   58.5680   64.8299 C   0  0  0  0  0  0  0  0  0  0  0  0
  -50.7371   59.6249   63.9358 C   0  0  0  0  0  0  0  0  0  0  0  0
  -50.9930   59.0529   62.5405 C   0  0  0  0  0  0  0  0  0  0  0  0
  -49.7849   58.4240   61.8619 C   0  0  0  0  0  0  0  0  0  0  0  0
  -50.0582   57.8219   60.4889 C   0  0  0  0  0  0  0  0  0  0  0  0
  -49.4334   56.4445   60.2925 C   0  0  0  0  0  0  0  0  0  0  0  0
  -48.2633   56.4357   59.3215 C   0  0  0  0  0  0  0  0  0  0  0  0
  -48.4954   57.1798   58.0151 C   0  0  0  0  0  0  0  0  0  0  0  0
  -47.4093   56.9413   57.0114 C   0  0  0  0  0  0  0  0  0  0  0  0
  -43.1912   57.4534   63.7880 O   0  0  0  0  0  0  0  0  0  0  0  0
  -42.2986   58.3832   63.1358 C   0  0  0  0  0  0  0  0  0  0  0  0
  -41.9039   57.9044   61.7547 C   0  0  0  0  0  0  0  0  0  0  0  0
  -42.1395   58.9201   60.7703 O   0  0  0  0  0  0  0  0  0  0  0  0
  -41.5806   59.6901   60.9599 H   0  0  0  0  0  0  0  0  0  0  0  0
  -40.4613   57.4614   61.6846 C   0  0  0  0  0  0  0  0  0  0  0  0
  -39.5807   58.3847   62.3698 O   0  0  0  0  0  0  0  0  0  0  0  0
  -38.9571   59.8007   61.9435 P   0  0  0  0  0  0  0  0  0  0  0  0
  -39.6999   60.8979   62.7040 O   0  0  0  0  0  0  0  0  0  0  0  0
  -39.1794   59.9993   60.4945 O   0  0  0  0  0  0  0  0  0  0  0  0
  -40.1284   59.9425   60.3022 H   0  0  0  0  0  0  0  0  0  0  0  0
  -37.3570   59.8896   62.3133 O   0  0  0  0  0  0  0  0  0  0  0  0
  -36.7358   59.4046   63.5348 C   0  0  0  0  0  0  0  0  0  0  0  0
  -35.7735   60.4335   64.0746 C   0  0  0  0  0  0  0  0  0  0  0  0
  -36.3368   61.4311   65.0696 N   0  0  0  0  0  0  0  0  0  0  0  0
  -37.4615   60.8212   65.8432 C   0  0  0  0  0  0  0  0  0  0  0  0
  -36.8502   62.6158   64.3191 C   0  0  0  0  0  0  0  0  0  0  0  0
  -35.2714   61.8747   66.0312 C   0  0  0  0  0  0  0  0  0  0  0  0
 34 33  1  0  0  0
 34 35  1  0  0  0
 34 36  1  0  0  0
 34 37  1  0  0  0
 22 23  1  0  0  0
 22 25  1  0  0  0
 22 21  1  0  0  0
 23 24  1  0  0  0
 27 26  1  0  0  0
 27 28  2  0  0  0
 27 31  1  0  0  0
 27 29  1  0  0  0
 25 26  1  0  0  0
 32 33  1  0  0  0
 32 31  1  0  0  0
 29 30  1  0  0  0
 20 21  1  0  0  0
 20  2  1  0  0  0
  1  2  2  0  0  0
  2  3  1  0  0  0
  3  4  1  0  0  0
  4  5  1  0  0  0
  5  6  1  0  0  0
  6  7  1  0  0  0
  7  8  1  0  0  0
  8  9  1  0  0  0
  9 10  1  0  0  0
 10 11  2  0  0  0
 11 12  1  0  0  0
 12 13  1  0  0  0
 13 14  1  0  0  0
 14 15  1  0  0  0
 15 16  1  0  0  0
 16 17  1  0  0  0
 17 18  1  0  0  0
 18 19  1  0  0  0
M  CHG 1  28  -1
M  END
> <minimizedAffinity>
-7.80436

> <CNNscore>
0.6001407504

> <CNNaffinity>
6.6902680397

> <CNN_VS>
4.0151023865

> <CNNaffinity_variance>
0.2895745635

$$$$
/media/chris/experiments/cd1a-new-docking/inputs/ligands/4x6e_ligand.pdb


 37 36  0  0  0  0  0  0  0  0999 V2000
  -42.1756   55.7876   64.3912 O   0  0  0  0  0  0  0  0  0  0  0  0
  -42.4714   56.8552   64.8682 C   0  0  0  0  0  0  0  0  0  0  0  0
  -43.8343   57.2378   65.3580 C   0  0  0  0  0  0  0  0  0  0  0  0
  -43.8005   58.0778   66.6292 C   0  0  0  0  0  0  0  0  0  0  0  0
  -44.3667   59.4782   66.4682 C   0  0  0  0  0  0  0  0  0  0  0  0
  -44.8814   59.7648   65.0685 C   0  0  0  0  0  0  0  0  0  0  0  0
  -46.3411   60.1850   65.0490 C   0  0  0  0  0  0  0  0  0  0  0  0
  -47.2059   59.2882   65.9066 C   0  0  0  0  0  0  0  0  0  0  0  0
  -48.0439   58.2884   65.1359 C   0  0  0  0  0  0  0  0  0  0  0  0
  -49.4367   58.1660   65.6230 C   0  0  0  0  0  0  0  0  0  0  0  0
  -50.4470   58.9412   65.2868 C   0  0  0  0  0  0  0  0  0  0  0  0
  -50.4288   60.0796   64.3192 C   0  0  0  0  0  0  0  0  0  0  0  0
  -51.1778   59.6969   63.0417 C   0  0  0  0  0  0  0  0  0  0  0  0
  -50.8066   58.3458   62.4481 C   0  0  0  0  0  0  0  0  0  0  0  0
  -50.2374   58.3973   61.0354 C   0  0  0  0  0  0  0  0  0  0  0  0
  -49.9154   57.0229   60.4580 C   0  0  0  0  0  0  0  0  0  0  0  0
  -49.0117   57.0685   59.2360 C   0  0  0  0  0  0  0  0  0  0  0  0
  -47.9566   55.9748   59.1650 C   0  0  0  0  0  0  0  0  0  0  0  0
  -47.2030   55.9798   57.8705 C   0  0  0  0  0  0  0  0  0  0  0  0
  -41.6124   57.8636   65.0436 O   0  0  0  0  0  0  0  0  0  0  0  0
  -41.3508   58.7300   63.9177 C   0  0  0  0  0  0  0  0  0  0  0  0
  -40.6535   60.0048   64.3431 C   0  0  0  0  0  0  0  0  0  0  0  0
  -41.5752   61.1018   64.4009 O   0  0  0  0  0  0  0  0  0  0  0  0
  -42.2485   60.9231   65.0761 H   0  0  0  0  0  0  0  0  0  0  0  0
  -39.9527   59.8663   65.6743 C   0  0  0  0  0  0  0  0  0  0  0  0
  -39.0665   60.9819   65.9347 O   0  0  0  0  0  0  0  0  0  0  0  0
  -37.4723   61.1401   65.8393 P   0  0  0  0  0  0  0  0  0  0  0  0
  -36.8924   59.8261   65.3186 O   0  0  0  0  0  0  0  0  0  0  0  0
  -36.9384   61.3849   67.1970 O   0  0  0  0  0  0  0  0  0  0  0  0
  -37.2014   60.6586   67.7837 H   0  0  0  0  0  0  0  0  0  0  0  0
  -37.0481   62.3512   64.8105 O   0  0  0  0  0  0  0  0  0  0  0  0
  -36.2564   63.5216   65.1515 C   0  0  0  0  0  0  0  0  0  0  0  0
  -34.8139   63.1324   65.3613 C   0  0  0  0  0  0  0  0  0  0  0  0
  -33.7857   63.8647   64.5192 N   0  0  0  0  0  0  0  0  0  0  0  0
  -34.0597   65.3344   64.5187 C   0  0  0  0  0  0  0  0  0  0  0  0
  -33.8663   63.3553   63.1177 C   0  0  0  0  0  0  0  0  0  0  0  0
  -32.4022   63.6297   65.0552 C   0  0  0  0  0  0  0  0  0  0  0  0
 34 33  1  0  0  0
 34 35  1  0  0  0
 34 36  1  0  0  0
 34 37  1  0  0  0
 22 23  1  0  0  0
 22 25  1  0  0  0
 22 21  1  0  0  0
 23 24  1  0  0  0
 27 26  1  0  0  0
 27 28  2  0  0  0
 27 31  1  0  0  0
 27 29  1  0  0  0
 25 26  1  0  0  0
 32 33  1  0  0  0
 32 31  1  0  0  0
 29 30  1  0  0  0
 20 21  1  0  0  0
 20  2  1  0  0  0
  1  2  2  0  0  0
  2  3  1  0  0  0
  3  4  1  0  0  0
  4  5  1  0  0  0
  5  6  1  0  0  0
  6  7  1  0  0  0
  7  8  1  0  0  0
  8  9  1  0  0  0
  9 10  1  0  0  0
 10 11  2  0  0  0
 11 12  1  0  0  0
 12 13  1  0  0  0
 13 14  1  0  0  0
 14 15  1  0  0  0
 15 16  1  0  0  0
 16 17  1  0  0  0
 17 18  1  0  0  0
 18 19  1  0  0  0
M  CHG 1  28  -1
M  END
> <minimizedAffinity>
-7.96123

> <CNNscore>
0.5924358964

> <CNNaffinity>
6.3573446274

> <CNN_VS>
3.7663192749

> <CNNaffinity_variance>
0.0742583424

$$$$
/media/chris/experiments/cd1a-new-docking/inputs/ligands/4x6e_ligand.pdb


 37 36  0  0  0  0  0  0  0  0999 V2000
  -43.3631   60.0160   62.7504 O   0  0  0  0  0  0  0  0  0  0  0  0
  -43.4889   59.4565   63.8115 C   0  0  0  0  0  0  0  0  0  0  0  0
  -44.4857   59.8187   64.8693 C   0  0  0  0  0  0  0  0  0  0  0  0
  -44.8231   58.6581   65.7976 C   0  0  0  0  0  0  0  0  0  0  0  0
  -45.5137   59.0691   67.0867 C   0  0  0  0  0  0  0  0  0  0  0  0
  -46.6837   58.1747   67.4573 C   0  0  0  0  0  0  0  0  0  0  0  0
  -47.1190   57.2675   66.3192 C   0  0  0  0  0  0  0  0  0  0  0  0
  -48.4428   57.6922   65.7235 C   0  0  0  0  0  0  0  0  0  0  0  0
  -48.8248   59.1344   65.9886 C   0  0  0  0  0  0  0  0  0  0  0  0
  -48.5667   60.0457   64.8507 C   0  0  0  0  0  0  0  0  0  0  0  0
  -49.4457   60.4257   63.9464 C   0  0  0  0  0  0  0  0  0  0  0  0
  -50.8937   60.0623   63.8860 C   0  0  0  0  0  0  0  0  0  0  0  0
  -51.1763   59.2312   62.6333 C   0  0  0  0  0  0  0  0  0  0  0  0
  -50.0523   58.3012   62.2006 C   0  0  0  0  0  0  0  0  0  0  0  0
  -50.3637   57.4363   60.9851 C   0  0  0  0  0  0  0  0  0  0  0  0
  -49.2742   57.4698   59.9184 C   0  0  0  0  0  0  0  0  0  0  0  0
  -48.6589   56.1099   59.6287 C   0  0  0  0  0  0  0  0  0  0  0  0
  -47.5725   56.1000   58.5638 C   0  0  0  0  0  0  0  0  0  0  0  0
  -47.9462   56.8900   57.3473 C   0  0  0  0  0  0  0  0  0  0  0  0
  -42.7559   58.4090   64.2001 O   0  0  0  0  0  0  0  0  0  0  0  0
  -41.3434   58.6184   64.4183 C   0  0  0  0  0  0  0  0  0  0  0  0
  -40.5208   57.4504   63.9168 C   0  0  0  0  0  0  0  0  0  0  0  0
  -41.2309   56.7134   62.9125 O   0  0  0  0  0  0  0  0  0  0  0  0
  -41.3883   57.2837   62.1436 H   0  0  0  0  0  0  0  0  0  0  0  0
  -39.1783   57.8780   63.3716 C   0  0  0  0  0  0  0  0  0  0  0  0
  -39.2951   58.4644   62.0524 O   0  0  0  0  0  0  0  0  0  0  0  0
  -39.2724   59.9853   61.5406 P   0  0  0  0  0  0  0  0  0  0  0  0
  -40.6640   60.3327   61.0143 O   0  0  0  0  0  0  0  0  0  0  0  0
  -38.3065   60.0956   60.4256 O   0  0  0  0  0  0  0  0  0  0  0  0
  -38.5523   59.4745   59.7222 H   0  0  0  0  0  0  0  0  0  0  0  0
  -38.8913   61.0243   62.7572 O   0  0  0  0  0  0  0  0  0  0  0  0
  -37.7378   61.9081   62.7939 C   0  0  0  0  0  0  0  0  0  0  0  0
  -37.2551   62.0768   64.2133 C   0  0  0  0  0  0  0  0  0  0  0  0
  -36.2406   63.1786   64.4570 N   0  0  0  0  0  0  0  0  0  0  0  0
  -36.2986   63.6392   65.8782 C   0  0  0  0  0  0  0  0  0  0  0  0
  -36.5609   64.3292   63.5604 C   0  0  0  0  0  0  0  0  0  0  0  0
  -34.8512   62.6898   64.1621 C   0  0  0  0  0  0  0  0  0  0  0  0
 34 33  1  0  0  0
 34 35  1  0  0  0
 34 36  1  0  0  0
 34 37  1  0  0  0
 22 23  1  0  0  0
 22 25  1  0  0  0
 22 21  1  0  0  0
 23 24  1  0  0  0
 27 26  1  0  0  0
 27 28  2  0  0  0
 27 31  1  0  0  0
 27 29  1  0  0  0
 25 26  1  0  0  0
 32 33  1  0  0  0
 32 31  1  0  0  0
 29 30  1  0  0  0
 20 21  1  0  0  0
 20  2  1  0  0  0
  1  2  2  0  0  0
  2  3  1  0  0  0
  3  4  1  0  0  0
  4  5  1  0  0  0
  5  6  1  0  0  0
  6  7  1  0  0  0
  7  8  1  0  0  0
  8  9  1  0  0  0
  9 10  1  0  0  0
 10 11  2  0  0  0
 11 12  1  0  0  0
 12 13  1  0  0  0
 13 14  1  0  0  0
 14 15  1  0  0  0
 15 16  1  0  0  0
 16 17  1  0  0  0
 17 18  1  0  0  0
 18 19  1  0  0  0
M  CHG 1  28  -1
M  END
> <minimizedAffinity>
-7.72543

> <CNNscore>
0.5869379044

> <CNNaffinity>
6.6812448502

> <CNN_VS>
3.9214758873

> <CNNaffinity_variance>
0.2893445492

$$$$
/media/chris/experiments/cd1a-new-docking/inputs/ligands/4x6e_ligand.pdb


 37 36  0  0  0  0  0  0  0  0999 V2000
  -43.0707   60.6279   62.7253 O   0  0  0  0  0  0  0  0  0  0  0  0
  -43.6072   59.7098   63.2944 C   0  0  0  0  0  0  0  0  0  0  0  0
  -44.6913   59.8406   64.3197 C   0  0  0  0  0  0  0  0  0  0  0  0
  -44.9894   58.5347   65.0468 C   0  0  0  0  0  0  0  0  0  0  0  0
  -45.0255   58.6562   66.5605 C   0  0  0  0  0  0  0  0  0  0  0  0
  -46.4064   58.4344   67.1520 C   0  0  0  0  0  0  0  0  0  0  0  0
  -47.3456   57.7062   66.2058 C   0  0  0  0  0  0  0  0  0  0  0  0
  -48.6502   58.4467   66.0124 C   0  0  0  0  0  0  0  0  0  0  0  0
  -48.5199   59.9547   65.9424 C   0  0  0  0  0  0  0  0  0  0  0  0
  -48.3407   60.4817   64.5705 C   0  0  0  0  0  0  0  0  0  0  0  0
  -49.2648   60.5363   63.6336 C   0  0  0  0  0  0  0  0  0  0  0  0
  -50.6959   60.1231   63.7517 C   0  0  0  0  0  0  0  0  0  0  0  0
  -51.1754   59.5041   62.4377 C   0  0  0  0  0  0  0  0  0  0  0  0
  -50.8475   58.0297   62.2536 C   0  0  0  0  0  0  0  0  0  0  0  0
  -50.8322   57.5488   60.8076 C   0  0  0  0  0  0  0  0  0  0  0  0
  -49.4578   57.0886   60.3331 C   0  0  0  0  0  0  0  0  0  0  0  0
  -49.1007   57.5671   58.9348 C   0  0  0  0  0  0  0  0  0  0  0  0
  -48.2246   56.6217   58.1267 C   0  0  0  0  0  0  0  0  0  0  0  0
  -47.4979   57.3133   57.0143 C   0  0  0  0  0  0  0  0  0  0  0  0
  -43.3183   58.4225   63.0822 O   0  0  0  0  0  0  0  0  0  0  0  0
  -42.0239   58.1051   62.5251 C   0  0  0  0  0  0  0  0  0  0  0  0
  -42.1062   57.8351   61.0376 C   0  0  0  0  0  0  0  0  0  0  0  0
  -42.0420   59.0558   60.2879 O   0  0  0  0  0  0  0  0  0  0  0  0
  -41.1842   59.4830   60.4385 H   0  0  0  0  0  0  0  0  0  0  0  0
  -41.0265   56.8934   60.5582 C   0  0  0  0  0  0  0  0  0  0  0  0
  -39.9789   57.5941   59.8447 O   0  0  0  0  0  0  0  0  0  0  0  0
  -38.7297   58.4686   60.3451 P   0  0  0  0  0  0  0  0  0  0  0  0
  -39.2357   59.8666   60.6965 O   0  0  0  0  0  0  0  0  0  0  0  0
  -37.7581   58.5850   59.2357 O   0  0  0  0  0  0  0  0  0  0  0  0
  -38.1949   58.9762   58.4630 H   0  0  0  0  0  0  0  0  0  0  0  0
  -38.0281   57.8084   61.6781 O   0  0  0  0  0  0  0  0  0  0  0  0
  -36.7622   58.2153   62.2656 C   0  0  0  0  0  0  0  0  0  0  0  0
  -36.9602   59.4264   63.1433 C   0  0  0  0  0  0  0  0  0  0  0  0
  -36.6292   59.2577   64.6145 N   0  0  0  0  0  0  0  0  0  0  0  0
  -35.1689   58.9935   64.7960 C   0  0  0  0  0  0  0  0  0  0  0  0
  -37.4025   58.0967   65.1476 C   0  0  0  0  0  0  0  0  0  0  0  0
  -36.9971   60.4953   65.3823 C   0  0  0  0  0  0  0  0  0  0  0  0
 34 33  1  0  0  0
 34 35  1  0  0  0
 34 36  1  0  0  0
 34 37  1  0  0  0
 22 23  1  0  0  0
 22 25  1  0  0  0
 22 21  1  0  0  0
 23 24  1  0  0  0
 27 26  1  0  0  0
 27 28  2  0  0  0
 27 31  1  0  0  0
 27 29  1  0  0  0
 25 26  1  0  0  0
 32 33  1  0  0  0
 32 31  1  0  0  0
 29 30  1  0  0  0
 20 21  1  0  0  0
 20  2  1  0  0  0
  1  2  2  0  0  0
  2  3  1  0  0  0
  3  4  1  0  0  0
  4  5  1  0  0  0
  5  6  1  0  0  0
  6  7  1  0  0  0
  7  8  1  0  0  0
  8  9  1  0  0  0
  9 10  1  0  0  0
 10 11  2  0  0  0
 11 12  1  0  0  0
 12 13  1  0  0  0
 13 14  1  0  0  0
 14 15  1  0  0  0
 15 16  1  0  0  0
 16 17  1  0  0  0
 17 18  1  0  0  0
 18 19  1  0  0  0
M  CHG 1  28  -1
M  END
> <minimizedAffinity>
-7.82772

> <CNNscore>
0.5795984268

> <CNNaffinity>
6.6682190895

> <CNN_VS>
3.8648893833

> <CNNaffinity_variance>
0.3586927056

$$$$
/media/chris/experiments/cd1a-new-docking/inputs/ligands/4x6e_ligand.pdb


 37 36  0  0  0  0  0  0  0  0999 V2000
  -42.3733   55.4037   64.8134 O   0  0  0  0  0  0  0  0  0  0  0  0
  -42.4942   56.5741   65.0786 C   0  0  0  0  0  0  0  0  0  0  0  0
  -43.4234   57.1376   66.1095 C   0  0  0  0  0  0  0  0  0  0  0  0
  -44.8594   57.2666   65.6156 C   0  0  0  0  0  0  0  0  0  0  0  0
  -45.5861   58.5007   66.1220 C   0  0  0  0  0  0  0  0  0  0  0  0
  -45.1893   59.7753   65.3982 C   0  0  0  0  0  0  0  0  0  0  0  0
  -46.0257   60.0363   64.1573 C   0  0  0  0  0  0  0  0  0  0  0  0
  -47.4389   59.5165   64.3002 C   0  0  0  0  0  0  0  0  0  0  0  0
  -48.5110   60.5871   64.3123 C   0  0  0  0  0  0  0  0  0  0  0  0
  -49.8045   60.1391   64.8765 C   0  0  0  0  0  0  0  0  0  0  0  0
  -50.8662   59.7736   64.1881 C   0  0  0  0  0  0  0  0  0  0  0  0
  -50.9934   59.6890   62.7017 C   0  0  0  0  0  0  0  0  0  0  0  0
  -50.9342   58.2287   62.2505 C   0  0  0  0  0  0  0  0  0  0  0  0
  -49.7463   57.8654   61.3716 C   0  0  0  0  0  0  0  0  0  0  0  0
  -50.1016   57.4388   59.9524 C   0  0  0  0  0  0  0  0  0  0  0  0
  -48.9203   57.4846   58.9888 C   0  0  0  0  0  0  0  0  0  0  0  0
  -48.0420   56.2444   59.0373 C   0  0  0  0  0  0  0  0  0  0  0  0
  -47.3170   55.9087   57.7427 C   0  0  0  0  0  0  0  0  0  0  0  0
  -47.3288   57.0405   56.7615 C   0  0  0  0  0  0  0  0  0  0  0  0
  -41.7985   57.5529   64.4925 O   0  0  0  0  0  0  0  0  0  0  0  0
  -40.3715   57.5913   64.7134 C   0  0  0  0  0  0  0  0  0  0  0  0
  -39.9136   58.9585   65.1754 C   0  0  0  0  0  0  0  0  0  0  0  0
  -40.6804   59.4054   66.3018 O   0  0  0  0  0  0  0  0  0  0  0  0
  -40.5365   58.8046   67.0497 H   0  0  0  0  0  0  0  0  0  0  0  0
  -38.4438   58.9912   65.5231 C   0  0  0  0  0  0  0  0  0  0  0  0
  -37.6316   58.3911   64.4849 O   0  0  0  0  0  0  0  0  0  0  0  0
  -37.1925   58.8998   63.0274 P   0  0  0  0  0  0  0  0  0  0  0  0
  -36.1051   57.9638   62.5026 O   0  0  0  0  0  0  0  0  0  0  0  0
  -36.6233   60.2595   63.1518 O   0  0  0  0  0  0  0  0  0  0  0  0
  -35.8801   60.2432   63.7749 H   0  0  0  0  0  0  0  0  0  0  0  0
  -38.4583   58.8830   61.9774 O   0  0  0  0  0  0  0  0  0  0  0  0
  -39.0928   60.0505   61.3879 C   0  0  0  0  0  0  0  0  0  0  0  0
  -40.4182   60.3175   62.0573 C   0  0  0  0  0  0  0  0  0  0  0  0
  -41.6594   59.8916   61.2955 N   0  0  0  0  0  0  0  0  0  0  0  0
  -41.8756   60.7761   60.1097 C   0  0  0  0  0  0  0  0  0  0  0  0
  -42.8389   60.0018   62.2048 C   0  0  0  0  0  0  0  0  0  0  0  0
  -41.5262   58.4718   60.8233 C   0  0  0  0  0  0  0  0  0  0  0  0
 34 33  1  0  0  0
 34 35  1  0  0  0
 34 36  1  0  0  0
 34 37  1  0  0  0
 22 23  1  0  0  0
 22 25  1  0  0  0
 22 21  1  0  0  0
 23 24  1  0  0  0
 27 26  1  0  0  0
 27 28  2  0  0  0
 27 31  1  0  0  0
 27 29  1  0  0  0
 25 26  1  0  0  0
 32 33  1  0  0  0
 32 31  1  0  0  0
 29 30  1  0  0  0
 20 21  1  0  0  0
 20  2  1  0  0  0
  1  2  2  0  0  0
  2  3  1  0  0  0
  3  4  1  0  0  0
  4  5  1  0  0  0
  5  6  1  0  0  0
  6  7  1  0  0  0
  7  8  1  0  0  0
  8  9  1  0  0  0
  9 10  1  0  0  0
 10 11  2  0  0  0
 11 12  1  0  0  0
 12 13  1  0  0  0
 13 14  1  0  0  0
 14 15  1  0  0  0
 15 16  1  0  0  0
 16 17  1  0  0  0
 17 18  1  0  0  0
 18 19  1  0  0  0
M  CHG 1  28  -1
M  END
> <minimizedAffinity>
-7.93130

> <CNNscore>
0.5628820658

> <CNNaffinity>
6.8950967789

> <CNN_VS>
3.8811264038

> <CNNaffinity_variance>
0.4167271554

$$$$
