/media/chris/experiments/cd1a-new-docking/inputs/ligands/4x6e_ligand.pdb


 37 36  0  0  0  0  0  0  0  0999 V2000
  -39.8301   59.8313   66.0189 O   0  0  0  0  0  0  0  0  0  0  0  0
  -40.0379   58.8140   65.4053 C   0  0  0  0  0  0  0  0  0  0  0  0
  -41.3777   58.1687   65.2256 C   0  0  0  0  0  0  0  0  0  0  0  0
  -42.2734   58.2954   66.4521 C   0  0  0  0  0  0  0  0  0  0  0  0
  -43.6634   58.8329   66.1581 C   0  0  0  0  0  0  0  0  0  0  0  0
  -44.7741   57.8556   66.5002 C   0  0  0  0  0  0  0  0  0  0  0  0
  -46.1395   58.3206   66.0238 C   0  0  0  0  0  0  0  0  0  0  0  0
  -47.2377   57.3517   66.4014 C   0  0  0  0  0  0  0  0  0  0  0  0
  -48.5528   57.5706   65.6812 C   0  0  0  0  0  0  0  0  0  0  0  0
  -48.9130   58.9957   65.5029 C   0  0  0  0  0  0  0  0  0  0  0  0
  -49.8482   59.4651   64.7031 C   0  0  0  0  0  0  0  0  0  0  0  0
  -50.7742   58.6760   63.8357 C   0  0  0  0  0  0  0  0  0  0  0  0
  -50.6438   59.1261   62.3797 C   0  0  0  0  0  0  0  0  0  0  0  0
  -49.7726   58.2420   61.4995 C   0  0  0  0  0  0  0  0  0  0  0  0
  -49.7260   58.6424   60.0298 C   0  0  0  0  0  0  0  0  0  0  0  0
  -49.3946   57.4852   59.0934 C   0  0  0  0  0  0  0  0  0  0  0  0
  -48.6907   56.3249   59.7789 C   0  0  0  0  0  0  0  0  0  0  0  0
  -47.4084   55.8536   59.1095 C   0  0  0  0  0  0  0  0  0  0  0  0
  -47.4530   55.9799   57.6177 C   0  0  0  0  0  0  0  0  0  0  0  0
  -39.0924   58.1096   64.7763 O   0  0  0  0  0  0  0  0  0  0  0  0
  -37.7715   58.0821   65.3605 C   0  0  0  0  0  0  0  0  0  0  0  0
  -36.6911   58.0776   64.3000 C   0  0  0  0  0  0  0  0  0  0  0  0
  -37.2341   57.7565   63.0123 O   0  0  0  0  0  0  0  0  0  0  0  0
  -37.8689   58.4411   62.7492 H   0  0  0  0  0  0  0  0  0  0  0  0
  -35.9513   59.3924   64.2199 C   0  0  0  0  0  0  0  0  0  0  0  0
  -36.5847   60.3111   63.2968 O   0  0  0  0  0  0  0  0  0  0  0  0
  -37.7106   61.4375   63.4956 P   0  0  0  0  0  0  0  0  0  0  0  0
  -37.2123   62.7297   62.8503 O   0  0  0  0  0  0  0  0  0  0  0  0
  -37.8928   61.6749   64.9443 O   0  0  0  0  0  0  0  0  0  0  0  0
  -37.0443   61.9292   65.3395 H   0  0  0  0  0  0  0  0  0  0  0  0
  -39.1289   61.0029   62.7851 O   0  0  0  0  0  0  0  0  0  0  0  0
  -39.2714   60.1440   61.6211 C   0  0  0  0  0  0  0  0  0  0  0  0
  -40.5128   59.2961   61.7475 C   0  0  0  0  0  0  0  0  0  0  0  0
  -40.5313   58.0008   60.9571 N   0  0  0  0  0  0  0  0  0  0  0  0
  -39.3777   57.9501   60.0075 C   0  0  0  0  0  0  0  0  0  0  0  0
  -41.8041   57.9348   60.1787 C   0  0  0  0  0  0  0  0  0  0  0  0
  -40.4512   56.8190   61.8810 C   0  0  0  0  0  0  0  0  0  0  0  0
 34 33  1  0  0  0
 34 35  1  0  0  0
 34 36  1  0  0  0
 34 37  1  0  0  0
 22 23  1  0  0  0
 22 25  1  0  0  0
 22 21  1  0  0  0
 23 24  1  0  0  0
 27 26  1  0  0  0
 27 28  2  0  0  0
 27 31  1  0  0  0
 27 29  1  0  0  0
 25 26  1  0  0  0
 32 33  1  0  0  0
 32 31  1  0  0  0
 29 30  1  0  0  0
 20 21  1  0  0  0
 20  2  1  0  0  0
  1  2  2  0  0  0
  2  3  1  0  0  0
  3  4  1  0  0  0
  4  5  1  0  0  0
  5  6  1  0  0  0
  6  7  1  0  0  0
  7  8  1  0  0  0
  8  9  1  0  0  0
  9 10  1  0  0  0
 10 11  2  0  0  0
 11 12  1  0  0  0
 12 13  1  0  0  0
 13 14  1  0  0  0
 14 15  1  0  0  0
 15 16  1  0  0  0
 16 17  1  0  0  0
 17 18  1  0  0  0
 18 19  1  0  0  0
M  CHG 1  28  -1
M  END
> <minimizedAffinity>
-7.61423

> <CNNscore>
0.8488267064

> <CNNaffinity>
7.3407950401

> <CNN_VS>
6.2310628891

> <CNNaffinity_variance>
0.1514890492

$$$$
/media/chris/experiments/cd1a-new-docking/inputs/ligands/4x6e_ligand.pdb


 37 36  0  0  0  0  0  0  0  0999 V2000
  -41.9747   57.4239   65.2463 O   0  0  0  0  0  0  0  0  0  0  0  0
  -42.0900   58.4943   65.7900 C   0  0  0  0  0  0  0  0  0  0  0  0
  -42.9170   58.7621   67.0098 C   0  0  0  0  0  0  0  0  0  0  0  0
  -44.3900   58.9955   66.6959 C   0  0  0  0  0  0  0  0  0  0  0  0
  -45.1383   57.7520   66.2475 C   0  0  0  0  0  0  0  0  0  0  0  0
  -46.3882   57.4718   67.0631 C   0  0  0  0  0  0  0  0  0  0  0  0
  -47.4697   56.7641   66.2650 C   0  0  0  0  0  0  0  0  0  0  0  0
  -48.1657   57.6932   65.2956 C   0  0  0  0  0  0  0  0  0  0  0  0
  -48.8034   58.9120   65.9312 C   0  0  0  0  0  0  0  0  0  0  0  0
  -50.2145   59.1286   65.5384 C   0  0  0  0  0  0  0  0  0  0  0  0
  -50.6312   59.7188   64.4373 C   0  0  0  0  0  0  0  0  0  0  0  0
  -49.7886   60.2606   63.3287 C   0  0  0  0  0  0  0  0  0  0  0  0
  -50.2697   59.7112   61.9846 C   0  0  0  0  0  0  0  0  0  0  0  0
  -51.0896   58.4315   62.0593 C   0  0  0  0  0  0  0  0  0  0  0  0
  -50.7396   57.3803   61.0128 C   0  0  0  0  0  0  0  0  0  0  0  0
  -50.4280   57.9673   59.6402 C   0  0  0  0  0  0  0  0  0  0  0  0
  -49.0215   57.6633   59.1492 C   0  0  0  0  0  0  0  0  0  0  0  0
  -48.4650   56.3094   59.5638 C   0  0  0  0  0  0  0  0  0  0  0  0
  -47.3176   55.8676   58.7083 C   0  0  0  0  0  0  0  0  0  0  0  0
  -41.4787   59.6119   65.3860 O   0  0  0  0  0  0  0  0  0  0  0  0
  -40.4056   60.1269   66.2045 C   0  0  0  0  0  0  0  0  0  0  0  0
  -39.1025   60.1993   65.4374 C   0  0  0  0  0  0  0  0  0  0  0  0
  -38.2619   61.2436   65.9465 O   0  0  0  0  0  0  0  0  0  0  0  0
  -38.0241   61.0478   66.8663 H   0  0  0  0  0  0  0  0  0  0  0  0
  -38.3458   58.8918   65.4543 C   0  0  0  0  0  0  0  0  0  0  0  0
  -36.9300   59.0862   65.2198 O   0  0  0  0  0  0  0  0  0  0  0  0
  -36.0779   59.3109   63.8783 P   0  0  0  0  0  0  0  0  0  0  0  0
  -34.5974   59.1528   64.2210 O   0  0  0  0  0  0  0  0  0  0  0  0
  -36.3050   60.6915   63.3984 O   0  0  0  0  0  0  0  0  0  0  0  0
  -36.0642   61.3203   64.0966 H   0  0  0  0  0  0  0  0  0  0  0  0
  -36.4747   58.2106   62.7219 O   0  0  0  0  0  0  0  0  0  0  0  0
  -37.6172   58.2888   61.8267 C   0  0  0  0  0  0  0  0  0  0  0  0
  -38.7007   57.3420   62.2800 C   0  0  0  0  0  0  0  0  0  0  0  0
  -40.0646   57.5167   61.6382 N   0  0  0  0  0  0  0  0  0  0  0  0
  -39.9386   57.5841   60.1500 C   0  0  0  0  0  0  0  0  0  0  0  0
  -40.6651   58.7916   62.1328 C   0  0  0  0  0  0  0  0  0  0  0  0
  -40.9663   56.3700   61.9971 C   0  0  0  0  0  0  0  0  0  0  0  0
 34 33  1  0  0  0
 34 35  1  0  0  0
 34 36  1  0  0  0
 34 37  1  0  0  0
 22 23  1  0  0  0
 22 25  1  0  0  0
 22 21  1  0  0  0
 23 24  1  0  0  0
 27 26  1  0  0  0
 27 28  2  0  0  0
 27 31  1  0  0  0
 27 29  1  0  0  0
 25 26  1  0  0  0
 32 33  1  0  0  0
 32 31  1  0  0  0
 29 30  1  0  0  0
 20 21  1  0  0  0
 20  2  1  0  0  0
  1  2  2  0  0  0
  2  3  1  0  0  0
  3  4  1  0  0  0
  4  5  1  0  0  0
  5  6  1  0  0  0
  6  7  1  0  0  0
  7  8  1  0  0  0
  8  9  1  0  0  0
  9 10  1  0  0  0
 10 11  2  0  0  0
 11 12  1  0  0  0
 12 13  1  0  0  0
 13 14  1  0  0  0
 14 15  1  0  0  0
 15 16  1  0  0  0
 16 17  1  0  0  0
 17 18  1  0  0  0
 18 19  1  0  0  0
M  CHG 1  28  -1
M  END
> <minimizedAffinity>
-8.00240

> <CNNscore>
0.8131932020

> <CNNaffinity>
7.1218605042

> <CNN_VS>
5.7914485931

> <CNNaffinity_variance>
0.1691304147

$$$$
/media/chris/experiments/cd1a-new-docking/inputs/ligands/4x6e_ligand.pdb


 37 36  0  0  0  0  0  0  0  0999 V2000
  -40.3825   58.8701   64.0771 O   0  0  0  0  0  0  0  0  0  0  0  0
  -40.1006   59.3988   65.1238 C   0  0  0  0  0  0  0  0  0  0  0  0
  -41.0828   59.9871   66.0897 C   0  0  0  0  0  0  0  0  0  0  0  0
  -41.8347   58.9346   66.8956 C   0  0  0  0  0  0  0  0  0  0  0  0
  -43.3398   59.1359   66.9361 C   0  0  0  0  0  0  0  0  0  0  0  0
  -44.0724   58.4481   65.7976 C   0  0  0  0  0  0  0  0  0  0  0  0
  -45.5685   58.3384   66.0368 C   0  0  0  0  0  0  0  0  0  0  0  0
  -46.1719   59.6471   66.4960 C   0  0  0  0  0  0  0  0  0  0  0  0
  -47.6698   59.7597   66.2973 C   0  0  0  0  0  0  0  0  0  0  0  0
  -48.3072   58.5197   65.7989 C   0  0  0  0  0  0  0  0  0  0  0  0
  -49.4466   58.4430   65.1428 C   0  0  0  0  0  0  0  0  0  0  0  0
  -50.3240   59.5766   64.7211 C   0  0  0  0  0  0  0  0  0  0  0  0
  -49.8204   60.1710   63.4048 C   0  0  0  0  0  0  0  0  0  0  0  0
  -50.5951   59.7550   62.1629 C   0  0  0  0  0  0  0  0  0  0  0  0
  -51.0855   58.3121   62.1630 C   0  0  0  0  0  0  0  0  0  0  0  0
  -50.7799   57.5648   60.8691 C   0  0  0  0  0  0  0  0  0  0  0  0
  -49.2989   57.2985   60.6509 C   0  0  0  0  0  0  0  0  0  0  0  0
  -48.9638   55.9497   60.0321 C   0  0  0  0  0  0  0  0  0  0  0  0
  -47.6693   55.9631   59.2787 C   0  0  0  0  0  0  0  0  0  0  0  0
  -38.8544   59.5286   65.5882 O   0  0  0  0  0  0  0  0  0  0  0  0
  -38.2964   60.8593   65.6589 C   0  0  0  0  0  0  0  0  0  0  0  0
  -37.5721   61.2304   64.3823 C   0  0  0  0  0  0  0  0  0  0  0  0
  -38.4599   61.1945   63.2568 O   0  0  0  0  0  0  0  0  0  0  0  0
  -39.1582   61.8575   63.3744 H   0  0  0  0  0  0  0  0  0  0  0  0
  -36.9157   62.5888   64.4615 C   0  0  0  0  0  0  0  0  0  0  0  0
  -36.8356   63.0692   65.8254 O   0  0  0  0  0  0  0  0  0  0  0  0
  -35.6379   63.0935   66.8936 P   0  0  0  0  0  0  0  0  0  0  0  0
  -34.5494   62.1353   66.4125 O   0  0  0  0  0  0  0  0  0  0  0  0
  -36.1519   62.6075   68.1928 O   0  0  0  0  0  0  0  0  0  0  0  0
  -36.5267   61.7199   68.0807 H   0  0  0  0  0  0  0  0  0  0  0  0
  -34.9921   64.5991   67.0396 O   0  0  0  0  0  0  0  0  0  0  0  0
  -33.6807   65.0137   66.5693 C   0  0  0  0  0  0  0  0  0  0  0  0
  -33.6956   65.1896   65.0710 C   0  0  0  0  0  0  0  0  0  0  0  0
  -32.5977   64.4853   64.2956 N   0  0  0  0  0  0  0  0  0  0  0  0
  -31.8396   65.4628   63.4560 C   0  0  0  0  0  0  0  0  0  0  0  0
  -33.2231   63.4626   63.4049 C   0  0  0  0  0  0  0  0  0  0  0  0
  -31.6407   63.8084   65.2351 C   0  0  0  0  0  0  0  0  0  0  0  0
 34 33  1  0  0  0
 34 35  1  0  0  0
 34 36  1  0  0  0
 34 37  1  0  0  0
 22 23  1  0  0  0
 22 25  1  0  0  0
 22 21  1  0  0  0
 23 24  1  0  0  0
 27 26  1  0  0  0
 27 28  2  0  0  0
 27 31  1  0  0  0
 27 29  1  0  0  0
 25 26  1  0  0  0
 32 33  1  0  0  0
 32 31  1  0  0  0
 29 30  1  0  0  0
 20 21  1  0  0  0
 20  2  1  0  0  0
  1  2  2  0  0  0
  2  3  1  0  0  0
  3  4  1  0  0  0
  4  5  1  0  0  0
  5  6  1  0  0  0
  6  7  1  0  0  0
  7  8  1  0  0  0
  8  9  1  0  0  0
  9 10  1  0  0  0
 10 11  2  0  0  0
 11 12  1  0  0  0
 12 13  1  0  0  0
 13 14  1  0  0  0
 14 15  1  0  0  0
 15 16  1  0  0  0
 16 17  1  0  0  0
 17 18  1  0  0  0
 18 19  1  0  0  0
M  CHG 1  28  -1
M  END
> <minimizedAffinity>
-7.81208

> <CNNscore>
0.6116667986

> <CNNaffinity>
6.1185841560

> <CNN_VS>
3.7425348759

> <CNNaffinity_variance>
0.4058954716

$$$$
/media/chris/experiments/cd1a-new-docking/inputs/ligands/4x6e_ligand.pdb


 37 36  0  0  0  0  0  0  0  0999 V2000
  -43.2721   61.1410   63.2364 O   0  0  0  0  0  0  0  0  0  0  0  0
  -42.9480   60.3389   64.0767 C   0  0  0  0  0  0  0  0  0  0  0  0
  -43.8917   59.5577   64.9387 C   0  0  0  0  0  0  0  0  0  0  0  0
  -45.0124   58.8914   64.1496 C   0  0  0  0  0  0  0  0  0  0  0  0
  -46.3956   59.4508   64.4346 C   0  0  0  0  0  0  0  0  0  0  0  0
  -46.5855   59.8878   65.8764 C   0  0  0  0  0  0  0  0  0  0  0  0
  -47.8006   59.2542   66.5320 C   0  0  0  0  0  0  0  0  0  0  0  0
  -48.4602   58.2255   65.6408 C   0  0  0  0  0  0  0  0  0  0  0  0
  -49.9745   58.2758   65.6264 C   0  0  0  0  0  0  0  0  0  0  0  0
  -50.5308   59.5843   65.2130 C   0  0  0  0  0  0  0  0  0  0  0  0
  -50.9478   59.9031   64.0051 C   0  0  0  0  0  0  0  0  0  0  0  0
  -50.9927   59.0177   62.8023 C   0  0  0  0  0  0  0  0  0  0  0  0
  -50.2910   59.6944   61.6236 C   0  0  0  0  0  0  0  0  0  0  0  0
  -49.8951   58.7693   60.4821 C   0  0  0  0  0  0  0  0  0  0  0  0
  -49.3545   57.4109   60.9119 C   0  0  0  0  0  0  0  0  0  0  0  0
  -48.7916   56.5866   59.7589 C   0  0  0  0  0  0  0  0  0  0  0  0
  -48.9632   57.2411   58.3973 C   0  0  0  0  0  0  0  0  0  0  0  0
  -47.7477   57.1752   57.4849 C   0  0  0  0  0  0  0  0  0  0  0  0
  -47.1298   55.8114   57.4399 C   0  0  0  0  0  0  0  0  0  0  0  0
  -41.6824   60.0154   64.3580 O   0  0  0  0  0  0  0  0  0  0  0  0
  -41.1888   60.3136   65.6826 C   0  0  0  0  0  0  0  0  0  0  0  0
  -40.0763   59.3711   66.0901 C   0  0  0  0  0  0  0  0  0  0  0  0
  -40.0510   58.2095   65.2496 O   0  0  0  0  0  0  0  0  0  0  0  0
  -39.8600   58.4752   64.3364 H   0  0  0  0  0  0  0  0  0  0  0  0
  -38.7188   60.0339   66.0724 C   0  0  0  0  0  0  0  0  0  0  0  0
  -38.0374   59.8316   64.8107 O   0  0  0  0  0  0  0  0  0  0  0  0
  -37.4749   60.8558   63.7103 P   0  0  0  0  0  0  0  0  0  0  0  0
  -35.9493   60.8543   63.7924 O   0  0  0  0  0  0  0  0  0  0  0  0
  -37.9624   62.2143   64.0344 O   0  0  0  0  0  0  0  0  0  0  0  0
  -37.6851   62.4513   64.9332 H   0  0  0  0  0  0  0  0  0  0  0  0
  -37.9244   60.4137   62.1911 O   0  0  0  0  0  0  0  0  0  0  0  0
  -39.2791   60.1182   61.7547 C   0  0  0  0  0  0  0  0  0  0  0  0
  -39.4035   58.6591   61.3919 C   0  0  0  0  0  0  0  0  0  0  0  0
  -40.7898   58.1714   61.0135 N   0  0  0  0  0  0  0  0  0  0  0  0
  -41.6713   59.3246   60.6555 C   0  0  0  0  0  0  0  0  0  0  0  0
  -41.3794   57.4546   62.1836 C   0  0  0  0  0  0  0  0  0  0  0  0
  -40.7167   57.2347   59.8414 C   0  0  0  0  0  0  0  0  0  0  0  0
 34 33  1  0  0  0
 34 35  1  0  0  0
 34 36  1  0  0  0
 34 37  1  0  0  0
 22 23  1  0  0  0
 22 25  1  0  0  0
 22 21  1  0  0  0
 23 24  1  0  0  0
 27 26  1  0  0  0
 27 28  2  0  0  0
 27 31  1  0  0  0
 27 29  1  0  0  0
 25 26  1  0  0  0
 32 33  1  0  0  0
 32 31  1  0  0  0
 29 30  1  0  0  0
 20 21  1  0  0  0
 20  2  1  0  0  0
  1  2  2  0  0  0
  2  3  1  0  0  0
  3  4  1  0  0  0
  4  5  1  0  0  0
  5  6  1  0  0  0
  6  7  1  0  0  0
  7  8  1  0  0  0
  8  9  1  0  0  0
  9 10  1  0  0  0
 10 11  2  0  0  0
 11 12  1  0  0  0
 12 13  1  0  0  0
 13 14  1  0  0  0
 14 15  1  0  0  0
 15 16  1  0  0  0
 16 17  1  0  0  0
 17 18  1  0  0  0
 18 19  1  0  0  0
M  CHG 1  28  -1
M  END
> <minimizedAffinity>
-7.85236

> <CNNscore>
0.5994354486

> <CNNaffinity>
6.8574562073

> <CNN_VS>
4.1106023788

> <CNNaffinity_variance>
0.1947629899

$$$$
/media/chris/experiments/cd1a-new-docking/inputs/ligands/4x6e_ligand.pdb


 37 36  0  0  0  0  0  0  0  0999 V2000
  -43.4990   61.7319   62.9421 O   0  0  0  0  0  0  0  0  0  0  0  0
  -43.1986   60.6841   63.4583 C   0  0  0  0  0  0  0  0  0  0  0  0
  -43.9705   60.0008   64.5450 C   0  0  0  0  0  0  0  0  0  0  0  0
  -45.1816   59.2333   64.0284 C   0  0  0  0  0  0  0  0  0  0  0  0
  -46.5151   59.8996   64.3207 C   0  0  0  0  0  0  0  0  0  0  0  0
  -46.7604   60.1374   65.8003 C   0  0  0  0  0  0  0  0  0  0  0  0
  -48.0910   59.5805   66.2768 C   0  0  0  0  0  0  0  0  0  0  0  0
  -48.5146   58.3597   65.4908 C   0  0  0  0  0  0  0  0  0  0  0  0
  -50.0062   58.2465   65.2491 C   0  0  0  0  0  0  0  0  0  0  0  0
  -50.6317   59.4899   64.7441 C   0  0  0  0  0  0  0  0  0  0  0  0
  -50.6107   59.9183   63.4989 C   0  0  0  0  0  0  0  0  0  0  0  0
  -49.9952   59.2373   62.3198 C   0  0  0  0  0  0  0  0  0  0  0  0
  -50.9836   58.2405   61.7122 C   0  0  0  0  0  0  0  0  0  0  0  0
  -50.5351   57.5875   60.4130 C   0  0  0  0  0  0  0  0  0  0  0  0
  -49.6010   56.3951   60.5803 C   0  0  0  0  0  0  0  0  0  0  0  0
  -48.5163   56.3162   59.5111 C   0  0  0  0  0  0  0  0  0  0  0  0
  -48.6330   57.3890   58.4400 C   0  0  0  0  0  0  0  0  0  0  0  0
  -47.8633   57.1148   57.1568 C   0  0  0  0  0  0  0  0  0  0  0  0
  -47.0422   55.8642   57.2292 C   0  0  0  0  0  0  0  0  0  0  0  0
  -42.1249   59.9624   63.1238 O   0  0  0  0  0  0  0  0  0  0  0  0
  -40.8374   60.6171   63.1509 C   0  0  0  0  0  0  0  0  0  0  0  0
  -39.9022   59.9704   64.1506 C   0  0  0  0  0  0  0  0  0  0  0  0
  -40.0641   58.5456   64.1609 O   0  0  0  0  0  0  0  0  0  0  0  0
  -39.8228   58.1864   63.2927 H   0  0  0  0  0  0  0  0  0  0  0  0
  -38.4528   60.3097   63.8929 C   0  0  0  0  0  0  0  0  0  0  0  0
  -38.2460   61.7388   63.7825 O   0  0  0  0  0  0  0  0  0  0  0  0
  -36.9576   62.6656   64.0218 P   0  0  0  0  0  0  0  0  0  0  0  0
  -36.9386   63.0869   65.4903 O   0  0  0  0  0  0  0  0  0  0  0  0
  -37.0850   63.8792   63.1858 O   0  0  0  0  0  0  0  0  0  0  0  0
  -37.9124   64.3363   63.4034 H   0  0  0  0  0  0  0  0  0  0  0  0
  -35.5647   61.8588   63.6838 O   0  0  0  0  0  0  0  0  0  0  0  0
  -34.2488   62.1683   64.2183 C   0  0  0  0  0  0  0  0  0  0  0  0
  -33.7303   63.4512   63.6174 C   0  0  0  0  0  0  0  0  0  0  0  0
  -32.8316   64.2975   64.4999 N   0  0  0  0  0  0  0  0  0  0  0  0
  -32.7815   65.7054   63.9994 C   0  0  0  0  0  0  0  0  0  0  0  0
  -31.4538   63.7221   64.4694 C   0  0  0  0  0  0  0  0  0  0  0  0
  -33.3372   64.3035   65.9145 C   0  0  0  0  0  0  0  0  0  0  0  0
 34 33  1  0  0  0
 34 35  1  0  0  0
 34 36  1  0  0  0
 34 37  1  0  0  0
 22 23  1  0  0  0
 22 25  1  0  0  0
 22 21  1  0  0  0
 23 24  1  0  0  0
 27 26  1  0  0  0
 27 28  2  0  0  0
 27 31  1  0  0  0
 27 29  1  0  0  0
 25 26  1  0  0  0
 32 33  1  0  0  0
 32 31  1  0  0  0
 29 30  1  0  0  0
 20 21  1  0  0  0
 20  2  1  0  0  0
  1  2  2  0  0  0
  2  3  1  0  0  0
  3  4  1  0  0  0
  4  5  1  0  0  0
  5  6  1  0  0  0
  6  7  1  0  0  0
  7  8  1  0  0  0
  8  9  1  0  0  0
  9 10  1  0  0  0
 10 11  2  0  0  0
 11 12  1  0  0  0
 12 13  1  0  0  0
 13 14  1  0  0  0
 14 15  1  0  0  0
 15 16  1  0  0  0
 16 17  1  0  0  0
 17 18  1  0  0  0
 18 19  1  0  0  0
M  CHG 1  28  -1
M  END
> <minimizedAffinity>
-7.96730

> <CNNscore>
0.5972558856

> <CNNaffinity>
6.0525498390

> <CNN_VS>
3.6149210930

> <CNNaffinity_variance>
0.3657080531

$$$$
/media/chris/experiments/cd1a-new-docking/inputs/ligands/4x6e_ligand.pdb


 37 36  0  0  0  0  0  0  0  0999 V2000
  -41.0299   56.1311   61.8707 O   0  0  0  0  0  0  0  0  0  0  0  0
  -41.1957   57.3013   61.6307 C   0  0  0  0  0  0  0  0  0  0  0  0
  -42.5241   57.9683   61.4454 C   0  0  0  0  0  0  0  0  0  0  0  0
  -42.5257   59.4306   61.8745 C   0  0  0  0  0  0  0  0  0  0  0  0
  -43.2094   59.6906   63.2059 C   0  0  0  0  0  0  0  0  0  0  0  0
  -44.1192   58.5585   63.6492 C   0  0  0  0  0  0  0  0  0  0  0  0
  -43.7301   57.9801   64.9989 C   0  0  0  0  0  0  0  0  0  0  0  0
  -44.9053   57.3481   65.7107 C   0  0  0  0  0  0  0  0  0  0  0  0
  -46.2342   58.0380   65.4781 C   0  0  0  0  0  0  0  0  0  0  0  0
  -47.4079   57.2520   65.9217 C   0  0  0  0  0  0  0  0  0  0  0  0
  -48.6423   57.6973   66.0334 C   0  0  0  0  0  0  0  0  0  0  0  0
  -49.1418   59.0664   65.7039 C   0  0  0  0  0  0  0  0  0  0  0  0
  -50.4810   58.9762   64.9704 C   0  0  0  0  0  0  0  0  0  0  0  0
  -50.6945   60.0093   63.8737 C   0  0  0  0  0  0  0  0  0  0  0  0
  -50.7335   59.4470   62.4578 C   0  0  0  0  0  0  0  0  0  0  0  0
  -49.8214   58.2416   62.2557 C   0  0  0  0  0  0  0  0  0  0  0  0
  -50.1284   57.4455   60.9973 C   0  0  0  0  0  0  0  0  0  0  0  0
  -49.9343   58.1958   59.6882 C   0  0  0  0  0  0  0  0  0  0  0  0
  -49.0798   57.4471   58.7120 C   0  0  0  0  0  0  0  0  0  0  0  0
  -40.2057   58.1901   61.5052 O   0  0  0  0  0  0  0  0  0  0  0  0
  -38.8607   57.6844   61.3563 C   0  0  0  0  0  0  0  0  0  0  0  0
  -37.8325   58.7905   61.4629 C   0  0  0  0  0  0  0  0  0  0  0  0
  -38.3551   60.0298   60.9655 O   0  0  0  0  0  0  0  0  0  0  0  0
  -39.1075   60.3060   61.5119 H   0  0  0  0  0  0  0  0  0  0  0  0
  -37.3348   58.9858   62.8758 C   0  0  0  0  0  0  0  0  0  0  0  0
  -37.9037   60.1685   63.4882 O   0  0  0  0  0  0  0  0  0  0  0  0
  -38.9751   60.3657   64.6670 P   0  0  0  0  0  0  0  0  0  0  0  0
  -39.4518   58.9849   65.1148 O   0  0  0  0  0  0  0  0  0  0  0  0
  -40.1344   61.1135   64.1333 O   0  0  0  0  0  0  0  0  0  0  0  0
  -40.5057   60.6363   63.3749 H   0  0  0  0  0  0  0  0  0  0  0  0
  -38.3141   61.1425   65.9573 O   0  0  0  0  0  0  0  0  0  0  0  0
  -36.9087   61.4735   66.1250 C   0  0  0  0  0  0  0  0  0  0  0  0
  -36.5478   62.6639   65.2713 C   0  0  0  0  0  0  0  0  0  0  0  0
  -35.0678   62.9106   65.0445 N   0  0  0  0  0  0  0  0  0  0  0  0
  -34.3191   62.8283   66.3360 C   0  0  0  0  0  0  0  0  0  0  0  0
  -34.8945   64.2779   64.4692 C   0  0  0  0  0  0  0  0  0  0  0  0
  -34.5045   61.8949   64.0919 C   0  0  0  0  0  0  0  0  0  0  0  0
 34 33  1  0  0  0
 34 35  1  0  0  0
 34 36  1  0  0  0
 34 37  1  0  0  0
 22 23  1  0  0  0
 22 25  1  0  0  0
 22 21  1  0  0  0
 23 24  1  0  0  0
 27 26  1  0  0  0
 27 28  2  0  0  0
 27 31  1  0  0  0
 27 29  1  0  0  0
 25 26  1  0  0  0
 32 33  1  0  0  0
 32 31  1  0  0  0
 29 30  1  0  0  0
 20 21  1  0  0  0
 20  2  1  0  0  0
  1  2  2  0  0  0
  2  3  1  0  0  0
  3  4  1  0  0  0
  4  5  1  0  0  0
  5  6  1  0  0  0
  6  7  1  0  0  0
  7  8  1  0  0  0
  8  9  1  0  0  0
  9 10  1  0  0  0
 10 11  2  0  0  0
 11 12  1  0  0  0
 12 13  1  0  0  0
 13 14  1  0  0  0
 14 15  1  0  0  0
 15 16  1  0  0  0
 16 17  1  0  0  0
 17 18  1  0  0  0
 18 19  1  0  0  0
M  CHG 1  28  -1
M  END
> <minimizedAffinity>
-7.48722

> <CNNscore>
0.5389575958

> <CNNaffinity>
6.6352639198

> <CNN_VS>
3.5761258602

> <CNNaffinity_variance>
0.3765101433

$$$$
/media/chris/experiments/cd1a-new-docking/inputs/ligands/4x6e_ligand.pdb


 37 36  0  0  0  0  0  0  0  0999 V2000
  -40.4820   56.4259   63.0085 O   0  0  0  0  0  0  0  0  0  0  0  0
  -40.5696   57.6263   63.0865 C   0  0  0  0  0  0  0  0  0  0  0  0
  -41.2758   58.5093   62.1042 C   0  0  0  0  0  0  0  0  0  0  0  0
  -42.7933   58.3829   62.1674 C   0  0  0  0  0  0  0  0  0  0  0  0
  -43.4852   59.5197   62.8998 C   0  0  0  0  0  0  0  0  0  0  0  0
  -44.5854   59.0537   63.8370 C   0  0  0  0  0  0  0  0  0  0  0  0
  -45.0677   60.1477   64.7741 C   0  0  0  0  0  0  0  0  0  0  0  0
  -46.4015   59.8142   65.4044 C   0  0  0  0  0  0  0  0  0  0  0  0
  -46.8641   58.3868   65.1933 C   0  0  0  0  0  0  0  0  0  0  0  0
  -48.2831   58.1540   65.5462 C   0  0  0  0  0  0  0  0  0  0  0  0
  -49.3111   58.2477   64.7282 C   0  0  0  0  0  0  0  0  0  0  0  0
  -49.2778   58.5655   63.2686 C   0  0  0  0  0  0  0  0  0  0  0  0
  -50.6942   58.8275   62.7541 C   0  0  0  0  0  0  0  0  0  0  0  0
  -51.1565   57.9177   61.6254 C   0  0  0  0  0  0  0  0  0  0  0  0
  -50.0392   57.3410   60.7642 C   0  0  0  0  0  0  0  0  0  0  0  0
  -50.0148   57.8981   59.3448 C   0  0  0  0  0  0  0  0  0  0  0  0
  -48.8153   57.4429   58.5288 C   0  0  0  0  0  0  0  0  0  0  0  0
  -48.0419   56.2676   59.1074 C   0  0  0  0  0  0  0  0  0  0  0  0
  -46.9732   55.7665   58.1853 C   0  0  0  0  0  0  0  0  0  0  0  0
  -40.0528   58.3541   64.0810 O   0  0  0  0  0  0  0  0  0  0  0  0
  -38.7752   58.9903   63.8574 C   0  0  0  0  0  0  0  0  0  0  0  0
  -38.7546   60.4066   64.3919 C   0  0  0  0  0  0  0  0  0  0  0  0
  -39.9792   60.7198   65.0691 O   0  0  0  0  0  0  0  0  0  0  0  0
  -40.0793   60.1406   65.8408 H   0  0  0  0  0  0  0  0  0  0  0  0
  -37.5887   60.6601   65.3185 C   0  0  0  0  0  0  0  0  0  0  0  0
  -37.5604   62.0307   65.7854 O   0  0  0  0  0  0  0  0  0  0  0  0
  -36.3558   63.0595   66.0433 P   0  0  0  0  0  0  0  0  0  0  0  0
  -35.4598   62.4810   67.1374 O   0  0  0  0  0  0  0  0  0  0  0  0
  -36.9204   64.3390   66.5252 O   0  0  0  0  0  0  0  0  0  0  0  0
  -37.4456   64.1798   67.3249 H   0  0  0  0  0  0  0  0  0  0  0  0
  -35.4557   63.2850   64.6853 O   0  0  0  0  0  0  0  0  0  0  0  0
  -34.2950   62.5034   64.2920 C   0  0  0  0  0  0  0  0  0  0  0  0
  -33.6721   63.0849   63.0471 C   0  0  0  0  0  0  0  0  0  0  0  0
  -32.2889   62.5786   62.6822 N   0  0  0  0  0  0  0  0  0  0  0  0
  -32.2936   61.0892   62.5527 C   0  0  0  0  0  0  0  0  0  0  0  0
  -31.3369   62.9688   63.7646 C   0  0  0  0  0  0  0  0  0  0  0  0
  -31.8354   63.1770   61.3811 C   0  0  0  0  0  0  0  0  0  0  0  0
 34 33  1  0  0  0
 34 35  1  0  0  0
 34 36  1  0  0  0
 34 37  1  0  0  0
 22 23  1  0  0  0
 22 25  1  0  0  0
 22 21  1  0  0  0
 23 24  1  0  0  0
 27 26  1  0  0  0
 27 28  2  0  0  0
 27 31  1  0  0  0
 27 29  1  0  0  0
 25 26  1  0  0  0
 32 33  1  0  0  0
 32 31  1  0  0  0
 29 30  1  0  0  0
 20 21  1  0  0  0
 20  2  1  0  0  0
  1  2  2  0  0  0
  2  3  1  0  0  0
  3  4  1  0  0  0
  4  5  1  0  0  0
  5  6  1  0  0  0
  6  7  1  0  0  0
  7  8  1  0  0  0
  8  9  1  0  0  0
  9 10  1  0  0  0
 10 11  2  0  0  0
 11 12  1  0  0  0
 12 13  1  0  0  0
 13 14  1  0  0  0
 14 15  1  0  0  0
 15 16  1  0  0  0
 16 17  1  0  0  0
 17 18  1  0  0  0
 18 19  1  0  0  0
M  CHG 1  28  -1
M  END
> <minimizedAffinity>
-7.69808

> <CNNscore>
0.5212230086

> <CNNaffinity>
6.2810907364

> <CNN_VS>
3.2738490105

> <CNNaffinity_variance>
0.3366115093

$$$$
/media/chris/experiments/cd1a-new-docking/inputs/ligands/4x6e_ligand.pdb


 37 36  0  0  0  0  0  0  0  0999 V2000
  -41.0258   56.0841   61.8407 O   0  0  0  0  0  0  0  0  0  0  0  0
  -41.2388   57.2237   62.1731 C   0  0  0  0  0  0  0  0  0  0  0  0
  -42.5232   57.9636   61.9574 C   0  0  0  0  0  0  0  0  0  0  0  0
  -42.6785   59.1737   62.8708 C   0  0  0  0  0  0  0  0  0  0  0  0
  -43.1975   60.4200   62.1743 C   0  0  0  0  0  0  0  0  0  0  0  0
  -44.1519   61.2362   63.0280 C   0  0  0  0  0  0  0  0  0  0  0  0
  -45.0338   60.3766   63.9172 C   0  0  0  0  0  0  0  0  0  0  0  0
  -46.4110   60.9729   64.1051 C   0  0  0  0  0  0  0  0  0  0  0  0
  -47.3049   60.2156   65.0661 C   0  0  0  0  0  0  0  0  0  0  0  0
  -47.6446   58.8449   64.6211 C   0  0  0  0  0  0  0  0  0  0  0  0
  -48.8477   58.4042   64.3161 C   0  0  0  0  0  0  0  0  0  0  0  0
  -50.1210   59.1860   64.3096 C   0  0  0  0  0  0  0  0  0  0  0  0
  -50.9247   58.8731   63.0464 C   0  0  0  0  0  0  0  0  0  0  0  0
  -50.1554   58.9897   61.7387 C   0  0  0  0  0  0  0  0  0  0  0  0
  -50.1926   57.7475   60.8566 C   0  0  0  0  0  0  0  0  0  0  0  0
  -50.1267   58.0574   59.3648 C   0  0  0  0  0  0  0  0  0  0  0  0
  -49.0153   57.3201   58.6347 C   0  0  0  0  0  0  0  0  0  0  0  0
  -48.2906   56.2606   59.4511 C   0  0  0  0  0  0  0  0  0  0  0  0
  -47.0338   55.7805   58.7927 C   0  0  0  0  0  0  0  0  0  0  0  0
  -40.3524   58.0010   62.8023 O   0  0  0  0  0  0  0  0  0  0  0  0
  -38.9792   57.9551   62.3562 C   0  0  0  0  0  0  0  0  0  0  0  0
  -38.6178   59.1729   61.5325 C   0  0  0  0  0  0  0  0  0  0  0  0
  -38.8735   58.9474   60.1396 O   0  0  0  0  0  0  0  0  0  0  0  0
  -39.8229   58.8012   60.0047 H   0  0  0  0  0  0  0  0  0  0  0  0
  -39.3488   60.4158   61.9830 C   0  0  0  0  0  0  0  0  0  0  0  0
  -38.9887   60.7921   63.3343 O   0  0  0  0  0  0  0  0  0  0  0  0
  -37.6717   61.4703   63.9523 P   0  0  0  0  0  0  0  0  0  0  0  0
  -37.9471   61.7984   65.4189 O   0  0  0  0  0  0  0  0  0  0  0  0
  -37.4054   62.7331   63.2295 O   0  0  0  0  0  0  0  0  0  0  0  0
  -38.1813   63.3117   63.2929 H   0  0  0  0  0  0  0  0  0  0  0  0
  -36.3780   60.4580   63.8695 O   0  0  0  0  0  0  0  0  0  0  0  0
  -35.0373   60.7465   64.3513 C   0  0  0  0  0  0  0  0  0  0  0  0
  -34.0122   60.0598   63.4832 C   0  0  0  0  0  0  0  0  0  0  0  0
  -33.9131   58.5515   63.6168 N   0  0  0  0  0  0  0  0  0  0  0  0
  -34.9794   57.8830   62.8097 C   0  0  0  0  0  0  0  0  0  0  0  0
  -34.0916   58.1867   65.0540 C   0  0  0  0  0  0  0  0  0  0  0  0
  -32.5719   58.0679   63.1436 C   0  0  0  0  0  0  0  0  0  0  0  0
 34 33  1  0  0  0
 34 35  1  0  0  0
 34 36  1  0  0  0
 34 37  1  0  0  0
 22 23  1  0  0  0
 22 25  1  0  0  0
 22 21  1  0  0  0
 23 24  1  0  0  0
 27 26  1  0  0  0
 27 28  2  0  0  0
 27 31  1  0  0  0
 27 29  1  0  0  0
 25 26  1  0  0  0
 32 33  1  0  0  0
 32 31  1  0  0  0
 29 30  1  0  0  0
 20 21  1  0  0  0
 20  2  1  0  0  0
  1  2  2  0  0  0
  2  3  1  0  0  0
  3  4  1  0  0  0
  4  5  1  0  0  0
  5  6  1  0  0  0
  6  7  1  0  0  0
  7  8  1  0  0  0
  8  9  1  0  0  0
  9 10  1  0  0  0
 10 11  2  0  0  0
 11 12  1  0  0  0
 12 13  1  0  0  0
 13 14  1  0  0  0
 14 15  1  0  0  0
 15 16  1  0  0  0
 16 17  1  0  0  0
 17 18  1  0  0  0
 18 19  1  0  0  0
M  CHG 1  28  -1
M  END
> <minimizedAffinity>
-7.53762

> <CNNscore>
0.5114566088

> <CNNaffinity>
6.6156187057

> <CNN_VS>
3.3836019039

> <CNNaffinity_variance>
0.1484519541

$$$$
/media/chris/experiments/cd1a-new-docking/inputs/ligands/4x6e_ligand.pdb


 37 36  0  0  0  0  0  0  0  0999 V2000
  -40.7760   57.5360   60.2330 O   0  0  0  0  0  0  0  0  0  0  0  0
  -40.8602   58.5091   60.9405 C   0  0  0  0  0  0  0  0  0  0  0  0
  -41.8101   59.6492   60.7367 C   0  0  0  0  0  0  0  0  0  0  0  0
  -42.7267   59.8866   61.9309 C   0  0  0  0  0  0  0  0  0  0  0  0
  -43.1682   61.3299   62.1028 C   0  0  0  0  0  0  0  0  0  0  0  0
  -44.3748   61.4887   63.0110 C   0  0  0  0  0  0  0  0  0  0  0  0
  -44.7062   60.2225   63.7820 C   0  0  0  0  0  0  0  0  0  0  0  0
  -45.9207   60.3930   64.6672 C   0  0  0  0  0  0  0  0  0  0  0  0
  -47.2501   60.2158   63.9619 C   0  0  0  0  0  0  0  0  0  0  0  0
  -47.8341   58.8629   64.1066 C   0  0  0  0  0  0  0  0  0  0  0  0
  -49.1146   58.5605   64.0478 C   0  0  0  0  0  0  0  0  0  0  0  0
  -50.2516   59.4936   63.7847 C   0  0  0  0  0  0  0  0  0  0  0  0
  -51.0522   59.0192   62.5707 C   0  0  0  0  0  0  0  0  0  0  0  0
  -50.2589   58.8835   61.2793 C   0  0  0  0  0  0  0  0  0  0  0  0
  -50.2047   57.4744   60.7016 C   0  0  0  0  0  0  0  0  0  0  0  0
  -49.1997   57.3201   59.5649 C   0  0  0  0  0  0  0  0  0  0  0  0
  -48.5429   55.9500   59.5100 C   0  0  0  0  0  0  0  0  0  0  0  0
  -47.1948   55.9015   58.8066 C   0  0  0  0  0  0  0  0  0  0  0  0
  -47.3209   55.8374   57.3155 C   0  0  0  0  0  0  0  0  0  0  0  0
  -40.1167   58.7107   62.0324 O   0  0  0  0  0  0  0  0  0  0  0  0
  -39.1932   57.6698   62.4208 C   0  0  0  0  0  0  0  0  0  0  0  0
  -37.7630   58.1662   62.4301 C   0  0  0  0  0  0  0  0  0  0  0  0
  -37.6460   59.4144   61.7340 O   0  0  0  0  0  0  0  0  0  0  0  0
  -38.1701   60.0903   62.1918 H   0  0  0  0  0  0  0  0  0  0  0  0
  -37.2100   58.3164   63.8279 C   0  0  0  0  0  0  0  0  0  0  0  0
  -38.1023   59.0732   64.6813 O   0  0  0  0  0  0  0  0  0  0  0  0
  -38.3591   60.6486   64.8491 P   0  0  0  0  0  0  0  0  0  0  0  0
  -39.0091   60.8840   66.2116 O   0  0  0  0  0  0  0  0  0  0  0  0
  -39.2998   61.0901   63.7964 O   0  0  0  0  0  0  0  0  0  0  0  0
  -40.1195   60.5753   63.8586 H   0  0  0  0  0  0  0  0  0  0  0  0
  -36.9526   61.4985   64.7788 O   0  0  0  0  0  0  0  0  0  0  0  0
  -36.0708   61.7821   65.8991 C   0  0  0  0  0  0  0  0  0  0  0  0
  -34.6798   62.0899   65.4029 C   0  0  0  0  0  0  0  0  0  0  0  0
  -34.2171   63.5291   65.5343 N   0  0  0  0  0  0  0  0  0  0  0  0
  -34.8109   64.1611   66.7521 C   0  0  0  0  0  0  0  0  0  0  0  0
  -34.6643   64.2863   64.3272 C   0  0  0  0  0  0  0  0  0  0  0  0
  -32.7197   63.5936   65.6356 C   0  0  0  0  0  0  0  0  0  0  0  0
 34 33  1  0  0  0
 34 35  1  0  0  0
 34 36  1  0  0  0
 34 37  1  0  0  0
 22 23  1  0  0  0
 22 25  1  0  0  0
 22 21  1  0  0  0
 23 24  1  0  0  0
 27 26  1  0  0  0
 27 28  2  0  0  0
 27 31  1  0  0  0
 27 29  1  0  0  0
 25 26  1  0  0  0
 32 33  1  0  0  0
 32 31  1  0  0  0
 29 30  1  0  0  0
 20 21  1  0  0  0
 20  2  1  0  0  0
  1  2  2  0  0  0
  2  3  1  0  0  0
  3  4  1  0  0  0
  4  5  1  0  0  0
  5  6  1  0  0  0
  6  7  1  0  0  0
  7  8  1  0  0  0
  8  9  1  0  0  0
  9 10  1  0  0  0
 10 11  2  0  0  0
 11 12  1  0  0  0
 12 13  1  0  0  0
 13 14  1  0  0  0
 14 15  1  0  0  0
 15 16  1  0  0  0
 16 17  1  0  0  0
 17 18  1  0  0  0
 18 19  1  0  0  0
M  CHG 1  28  -1
M  END
> <minimizedAffinity>
-7.84821

> <CNNscore>
0.4510882497

> <CNNaffinity>
6.3467969894

> <CNN_VS>
2.8629655838

> <CNNaffinity_variance>
0.1591387987

$$$$
