/media/chris/experiments/cd1a-new-docking/inputs/ligands/4x6e_ligand.pdb


 37 36  0  0  0  0  0  0  0  0999 V2000
  -43.0030   57.4341   66.6528 O   0  0  0  0  0  0  0  0  0  0  0  0
  -43.3084   58.2709   65.8397 C   0  0  0  0  0  0  0  0  0  0  0  0
  -44.6557   58.9152   65.7233 C   0  0  0  0  0  0  0  0  0  0  0  0
  -45.2547   59.2995   67.0710 C   0  0  0  0  0  0  0  0  0  0  0  0
  -46.4241   58.4325   67.5052 C   0  0  0  0  0  0  0  0  0  0  0  0
  -46.5846   57.1729   66.6724 C   0  0  0  0  0  0  0  0  0  0  0  0
  -47.9526   57.0640   66.0212 C   0  0  0  0  0  0  0  0  0  0  0  0
  -48.6442   58.4048   65.9153 C   0  0  0  0  0  0  0  0  0  0  0  0
  -50.1017   58.3369   65.5066 C   0  0  0  0  0  0  0  0  0  0  0  0
  -50.6891   59.6477   65.1476 C   0  0  0  0  0  0  0  0  0  0  0  0
  -50.7129   60.1838   63.9448 C   0  0  0  0  0  0  0  0  0  0  0  0
  -50.1966   59.5829   62.6779 C   0  0  0  0  0  0  0  0  0  0  0  0
  -51.0472   58.3744   62.2834 C   0  0  0  0  0  0  0  0  0  0  0  0
  -50.7710   57.8069   60.8987 C   0  0  0  0  0  0  0  0  0  0  0  0
  -49.2983   57.7356   60.5138 C   0  0  0  0  0  0  0  0  0  0  0  0
  -49.0563   57.1092   59.1444 C   0  0  0  0  0  0  0  0  0  0  0  0
  -47.9738   56.0415   59.1421 C   0  0  0  0  0  0  0  0  0  0  0  0
  -47.1833   55.9181   57.8481 C   0  0  0  0  0  0  0  0  0  0  0  0
  -47.5722   56.9467   56.8310 C   0  0  0  0  0  0  0  0  0  0  0  0
  -42.4750   58.7624   64.9180 O   0  0  0  0  0  0  0  0  0  0  0  0
  -41.1170   58.2696   64.9059 C   0  0  0  0  0  0  0  0  0  0  0  0
  -40.1113   59.4012   64.9296 C   0  0  0  0  0  0  0  0  0  0  0  0
  -40.6808   60.5849   65.5047 O   0  0  0  0  0  0  0  0  0  0  0  0
  -40.9173   60.4134   66.4297 H   0  0  0  0  0  0  0  0  0  0  0  0
  -38.8476   59.0386   65.6737 C   0  0  0  0  0  0  0  0  0  0  0  0
  -37.6619   59.3304   64.8951 O   0  0  0  0  0  0  0  0  0  0  0  0
  -36.9063   60.7040   64.5511 P   0  0  0  0  0  0  0  0  0  0  0  0
  -37.7444   61.8593   65.0960 O   0  0  0  0  0  0  0  0  0  0  0  0
  -36.8167   60.8402   63.0808 O   0  0  0  0  0  0  0  0  0  0  0  0
  -37.7073   60.8044   62.6979 H   0  0  0  0  0  0  0  0  0  0  0  0
  -35.4145   60.7597   65.2414 O   0  0  0  0  0  0  0  0  0  0  0  0
  -34.3411   61.6707   64.8801 C   0  0  0  0  0  0  0  0  0  0  0  0
  -34.0059   62.5695   66.0445 C   0  0  0  0  0  0  0  0  0  0  0  0
  -34.6437   63.9464   66.0426 N   0  0  0  0  0  0  0  0  0  0  0  0
  -35.7967   63.9910   66.9931 C   0  0  0  0  0  0  0  0  0  0  0  0
  -35.1386   64.2413   64.6648 C   0  0  0  0  0  0  0  0  0  0  0  0
  -33.6423   64.9910   66.4457 C   0  0  0  0  0  0  0  0  0  0  0  0
 34 33  1  0  0  0
 34 35  1  0  0  0
 34 36  1  0  0  0
 34 37  1  0  0  0
 22 23  1  0  0  0
 22 25  1  0  0  0
 22 21  1  0  0  0
 23 24  1  0  0  0
 27 26  1  0  0  0
 27 28  2  0  0  0
 27 31  1  0  0  0
 27 29  1  0  0  0
 25 26  1  0  0  0
 32 33  1  0  0  0
 32 31  1  0  0  0
 29 30  1  0  0  0
 20 21  1  0  0  0
 20  2  1  0  0  0
  1  2  2  0  0  0
  2  3  1  0  0  0
  3  4  1  0  0  0
  4  5  1  0  0  0
  5  6  1  0  0  0
  6  7  1  0  0  0
  7  8  1  0  0  0
  8  9  1  0  0  0
  9 10  1  0  0  0
 10 11  2  0  0  0
 11 12  1  0  0  0
 12 13  1  0  0  0
 13 14  1  0  0  0
 14 15  1  0  0  0
 15 16  1  0  0  0
 16 17  1  0  0  0
 17 18  1  0  0  0
 18 19  1  0  0  0
M  CHG 1  28  -1
M  END
> <minimizedAffinity>
-8.12161

> <CNNscore>
0.8640776873

> <CNNaffinity>
6.8059492111

> <CNN_VS>
5.8808689117

> <CNNaffinity_variance>
0.4933781624

$$$$
/media/chris/experiments/cd1a-new-docking/inputs/ligands/4x6e_ligand.pdb


 37 36  0  0  0  0  0  0  0  0999 V2000
  -39.6443   60.9125   66.1191 O   0  0  0  0  0  0  0  0  0  0  0  0
  -39.7438   59.7252   65.9319 C   0  0  0  0  0  0  0  0  0  0  0  0
  -41.0276   58.9536   65.9245 C   0  0  0  0  0  0  0  0  0  0  0  0
  -42.0004   59.3982   67.0102 C   0  0  0  0  0  0  0  0  0  0  0  0
  -43.4580   59.3959   66.5826 C   0  0  0  0  0  0  0  0  0  0  0  0
  -44.0092   58.0051   66.3222 C   0  0  0  0  0  0  0  0  0  0  0  0
  -45.0970   57.9883   65.2621 C   0  0  0  0  0  0  0  0  0  0  0  0
  -46.4836   58.0355   65.8643 C   0  0  0  0  0  0  0  0  0  0  0  0
  -47.5632   58.5482   64.9329 C   0  0  0  0  0  0  0  0  0  0  0  0
  -48.9417   58.2739   65.3986 C   0  0  0  0  0  0  0  0  0  0  0  0
  -50.0523   58.6411   64.7934 C   0  0  0  0  0  0  0  0  0  0  0  0
  -50.1745   59.3723   63.4960 C   0  0  0  0  0  0  0  0  0  0  0  0
  -50.8499   58.4823   62.4514 C   0  0  0  0  0  0  0  0  0  0  0  0
  -49.9085   57.6227   61.6205 C   0  0  0  0  0  0  0  0  0  0  0  0
  -50.2922   57.4811   60.1526 C   0  0  0  0  0  0  0  0  0  0  0  0
  -49.1045   57.5765   59.2005 C   0  0  0  0  0  0  0  0  0  0  0  0
  -48.2314   56.3318   59.1841 C   0  0  0  0  0  0  0  0  0  0  0  0
  -47.6283   55.9769   57.8333 C   0  0  0  0  0  0  0  0  0  0  0  0
  -47.5084   57.1605   56.9230 C   0  0  0  0  0  0  0  0  0  0  0  0
  -38.7104   58.9139   65.6876 O   0  0  0  0  0  0  0  0  0  0  0  0
  -37.6702   59.3937   64.8073 C   0  0  0  0  0  0  0  0  0  0  0  0
  -37.0816   58.2742   63.9751 C   0  0  0  0  0  0  0  0  0  0  0  0
  -36.4203   57.3087   64.8039 O   0  0  0  0  0  0  0  0  0  0  0  0
  -37.0668   56.8944   65.3965 H   0  0  0  0  0  0  0  0  0  0  0  0
  -38.1169   57.5794   63.1220 C   0  0  0  0  0  0  0  0  0  0  0  0
  -37.8880   57.8023   61.7094 O   0  0  0  0  0  0  0  0  0  0  0  0
  -38.5043   58.8570   60.6685 P   0  0  0  0  0  0  0  0  0  0  0  0
  -37.8365   58.6355   59.3125 O   0  0  0  0  0  0  0  0  0  0  0  0
  -38.1835   60.2242   61.1334 O   0  0  0  0  0  0  0  0  0  0  0  0
  -37.2223   60.3172   61.2255 H   0  0  0  0  0  0  0  0  0  0  0  0
  -40.1280   58.6567   60.4988 O   0  0  0  0  0  0  0  0  0  0  0  0
  -41.0505   58.2457   61.5442 C   0  0  0  0  0  0  0  0  0  0  0  0
  -42.3689   58.9622   61.3874 C   0  0  0  0  0  0  0  0  0  0  0  0
  -42.4630   60.3484   61.9974 N   0  0  0  0  0  0  0  0  0  0  0  0
  -41.2346   60.6556   62.7921 C   0  0  0  0  0  0  0  0  0  0  0  0
  -43.6502   60.3921   62.9024 C   0  0  0  0  0  0  0  0  0  0  0  0
  -42.6179   61.3869   60.9231 C   0  0  0  0  0  0  0  0  0  0  0  0
 34 33  1  0  0  0
 34 35  1  0  0  0
 34 36  1  0  0  0
 34 37  1  0  0  0
 22 23  1  0  0  0
 22 25  1  0  0  0
 22 21  1  0  0  0
 23 24  1  0  0  0
 27 26  1  0  0  0
 27 28  2  0  0  0
 27 31  1  0  0  0
 27 29  1  0  0  0
 25 26  1  0  0  0
 32 33  1  0  0  0
 32 31  1  0  0  0
 29 30  1  0  0  0
 20 21  1  0  0  0
 20  2  1  0  0  0
  1  2  2  0  0  0
  2  3  1  0  0  0
  3  4  1  0  0  0
  4  5  1  0  0  0
  5  6  1  0  0  0
  6  7  1  0  0  0
  7  8  1  0  0  0
  8  9  1  0  0  0
  9 10  1  0  0  0
 10 11  2  0  0  0
 11 12  1  0  0  0
 12 13  1  0  0  0
 13 14  1  0  0  0
 14 15  1  0  0  0
 15 16  1  0  0  0
 16 17  1  0  0  0
 17 18  1  0  0  0
 18 19  1  0  0  0
M  CHG 1  28  -1
M  END
> <minimizedAffinity>
-7.98409

> <CNNscore>
0.7936417460

> <CNNaffinity>
7.3121948242

> <CNN_VS>
5.8032631874

> <CNNaffinity_variance>
0.3638371229

$$$$
/media/chris/experiments/cd1a-new-docking/inputs/ligands/4x6e_ligand.pdb


 37 36  0  0  0  0  0  0  0  0999 V2000
  -41.1188   55.2015   62.4238 O   0  0  0  0  0  0  0  0  0  0  0  0
  -41.4252   56.0655   63.2076 C   0  0  0  0  0  0  0  0  0  0  0  0
  -42.2386   55.8608   64.4487 C   0  0  0  0  0  0  0  0  0  0  0  0
  -42.4251   57.1370   65.2604 C   0  0  0  0  0  0  0  0  0  0  0  0
  -43.7942   57.2739   65.9042 C   0  0  0  0  0  0  0  0  0  0  0  0
  -44.0778   58.6697   66.4305 C   0  0  0  0  0  0  0  0  0  0  0  0
  -45.5084   58.8420   66.9113 C   0  0  0  0  0  0  0  0  0  0  0  0
  -46.3339   57.5907   66.7108 C   0  0  0  0  0  0  0  0  0  0  0  0
  -47.6825   57.8176   66.0584 C   0  0  0  0  0  0  0  0  0  0  0  0
  -48.2137   59.1886   66.2323 C   0  0  0  0  0  0  0  0  0  0  0  0
  -49.3724   59.6333   65.7914 C   0  0  0  0  0  0  0  0  0  0  0  0
  -50.4191   58.8565   65.0610 C   0  0  0  0  0  0  0  0  0  0  0  0
  -50.8109   59.5824   63.7730 C   0  0  0  0  0  0  0  0  0  0  0  0
  -49.7760   59.5368   62.6583 C   0  0  0  0  0  0  0  0  0  0  0  0
  -49.5381   58.1573   62.0563 C   0  0  0  0  0  0  0  0  0  0  0  0
  -50.6117   57.7345   61.0588 C   0  0  0  0  0  0  0  0  0  0  0  0
  -50.1597   57.7992   59.6086 C   0  0  0  0  0  0  0  0  0  0  0  0
  -48.9593   56.9317   59.2610 C   0  0  0  0  0  0  0  0  0  0  0  0
  -48.3289   57.3102   57.9561 C   0  0  0  0  0  0  0  0  0  0  0  0
  -41.0690   57.3480   63.0894 O   0  0  0  0  0  0  0  0  0  0  0  0
  -40.9549   57.8959   61.7576 C   0  0  0  0  0  0  0  0  0  0  0  0
  -39.5592   58.4149   61.4841 C   0  0  0  0  0  0  0  0  0  0  0  0
  -39.0776   57.9541   60.2143 O   0  0  0  0  0  0  0  0  0  0  0  0
  -39.6409   58.3066   59.5077 H   0  0  0  0  0  0  0  0  0  0  0  0
  -39.4807   59.9227   61.5344 C   0  0  0  0  0  0  0  0  0  0  0  0
  -39.2574   60.4054   62.8815 O   0  0  0  0  0  0  0  0  0  0  0  0
  -37.9478   60.9555   63.6287 P   0  0  0  0  0  0  0  0  0  0  0  0
  -36.9519   59.8040   63.7563 O   0  0  0  0  0  0  0  0  0  0  0  0
  -38.3291   61.4006   64.9869 O   0  0  0  0  0  0  0  0  0  0  0  0
  -38.7429   60.6645   65.4641 H   0  0  0  0  0  0  0  0  0  0  0  0
  -37.2408   62.1766   62.7836 O   0  0  0  0  0  0  0  0  0  0  0  0
  -36.9738   63.5156   63.2820 C   0  0  0  0  0  0  0  0  0  0  0  0
  -35.5709   63.9365   62.9205 C   0  0  0  0  0  0  0  0  0  0  0  0
  -34.5181   63.7842   64.0026 N   0  0  0  0  0  0  0  0  0  0  0  0
  -33.4998   64.8739   63.9000 C   0  0  0  0  0  0  0  0  0  0  0  0
  -33.8384   62.4662   63.8252 C   0  0  0  0  0  0  0  0  0  0  0  0
  -35.1508   63.8383   65.3640 C   0  0  0  0  0  0  0  0  0  0  0  0
 34 33  1  0  0  0
 34 35  1  0  0  0
 34 36  1  0  0  0
 34 37  1  0  0  0
 22 23  1  0  0  0
 22 25  1  0  0  0
 22 21  1  0  0  0
 23 24  1  0  0  0
 27 26  1  0  0  0
 27 28  2  0  0  0
 27 31  1  0  0  0
 27 29  1  0  0  0
 25 26  1  0  0  0
 32 33  1  0  0  0
 32 31  1  0  0  0
 29 30  1  0  0  0
 20 21  1  0  0  0
 20  2  1  0  0  0
  1  2  2  0  0  0
  2  3  1  0  0  0
  3  4  1  0  0  0
  4  5  1  0  0  0
  5  6  1  0  0  0
  6  7  1  0  0  0
  7  8  1  0  0  0
  8  9  1  0  0  0
  9 10  1  0  0  0
 10 11  2  0  0  0
 11 12  1  0  0  0
 12 13  1  0  0  0
 13 14  1  0  0  0
 14 15  1  0  0  0
 15 16  1  0  0  0
 16 17  1  0  0  0
 17 18  1  0  0  0
 18 19  1  0  0  0
M  CHG 1  28  -1
M  END
> <minimizedAffinity>
-7.64036

> <CNNscore>
0.7739118338

> <CNNaffinity>
6.8043975830

> <CNN_VS>
5.2660036087

> <CNNaffinity_variance>
0.5484648943

$$$$
/media/chris/experiments/cd1a-new-docking/inputs/ligands/4x6e_ligand.pdb


 37 36  0  0  0  0  0  0  0  0999 V2000
  -43.1105   57.1287   66.4101 O   0  0  0  0  0  0  0  0  0  0  0  0
  -42.6992   58.2372   66.1719 C   0  0  0  0  0  0  0  0  0  0  0  0
  -43.5061   59.4966   66.2518 C   0  0  0  0  0  0  0  0  0  0  0  0
  -44.9145   59.2732   66.7895 C   0  0  0  0  0  0  0  0  0  0  0  0
  -45.9049   58.7649   65.7559 C   0  0  0  0  0  0  0  0  0  0  0  0
  -46.3574   59.8332   64.7761 C   0  0  0  0  0  0  0  0  0  0  0  0
  -47.6329   60.5338   65.2115 C   0  0  0  0  0  0  0  0  0  0  0  0
  -48.4750   59.6727   66.1262 C   0  0  0  0  0  0  0  0  0  0  0  0
  -49.5522   58.8683   65.4271 C   0  0  0  0  0  0  0  0  0  0  0  0
  -50.6789   59.6831   64.9183 C   0  0  0  0  0  0  0  0  0  0  0  0
  -50.9305   59.9554   63.6545 C   0  0  0  0  0  0  0  0  0  0  0  0
  -50.1717   59.4776   62.4593 C   0  0  0  0  0  0  0  0  0  0  0  0
  -50.4616   57.9969   62.2087 C   0  0  0  0  0  0  0  0  0  0  0  0
  -50.8097   57.6347   60.7723 C   0  0  0  0  0  0  0  0  0  0  0  0
  -50.0232   58.3910   59.7086 C   0  0  0  0  0  0  0  0  0  0  0  0
  -49.1472   57.4907   58.8435 C   0  0  0  0  0  0  0  0  0  0  0  0
  -48.5100   56.3402   59.6065 C   0  0  0  0  0  0  0  0  0  0  0  0
  -47.2186   55.7997   59.0111 C   0  0  0  0  0  0  0  0  0  0  0  0
  -47.2224   55.8091   57.5133 C   0  0  0  0  0  0  0  0  0  0  0  0
  -41.4426   58.5103   65.8086 O   0  0  0  0  0  0  0  0  0  0  0  0
  -40.9155   59.8154   66.1337 C   0  0  0  0  0  0  0  0  0  0  0  0
  -39.5551   60.0407   65.5083 C   0  0  0  0  0  0  0  0  0  0  0  0
  -38.8802   61.1447   66.1264 O   0  0  0  0  0  0  0  0  0  0  0  0
  -38.7184   60.9424   67.0611 H   0  0  0  0  0  0  0  0  0  0  0  0
  -38.6761   58.8138   65.5737 C   0  0  0  0  0  0  0  0  0  0  0  0
  -37.9500   58.6053   64.3382 O   0  0  0  0  0  0  0  0  0  0  0  0
  -37.1744   59.6120   63.3580 P   0  0  0  0  0  0  0  0  0  0  0  0
  -36.1088   58.8182   62.6040 O   0  0  0  0  0  0  0  0  0  0  0  0
  -36.5011   60.6448   64.1756 O   0  0  0  0  0  0  0  0  0  0  0  0
  -35.9050   60.2170   64.8101 H   0  0  0  0  0  0  0  0  0  0  0  0
  -38.1967   60.2966   62.2664 O   0  0  0  0  0  0  0  0  0  0  0  0
  -38.4628   59.8073   60.9239 C   0  0  0  0  0  0  0  0  0  0  0  0
  -38.9717   58.3880   60.9775 C   0  0  0  0  0  0  0  0  0  0  0  0
  -40.4740   58.2114   61.0982 N   0  0  0  0  0  0  0  0  0  0  0  0
  -40.8418   57.7864   62.4835 C   0  0  0  0  0  0  0  0  0  0  0  0
  -40.9096   57.1565   60.1349 C   0  0  0  0  0  0  0  0  0  0  0  0
  -41.1824   59.4976   60.7814 C   0  0  0  0  0  0  0  0  0  0  0  0
 34 33  1  0  0  0
 34 35  1  0  0  0
 34 36  1  0  0  0
 34 37  1  0  0  0
 22 23  1  0  0  0
 22 25  1  0  0  0
 22 21  1  0  0  0
 23 24  1  0  0  0
 27 26  1  0  0  0
 27 28  2  0  0  0
 27 31  1  0  0  0
 27 29  1  0  0  0
 25 26  1  0  0  0
 32 33  1  0  0  0
 32 31  1  0  0  0
 29 30  1  0  0  0
 20 21  1  0  0  0
 20  2  1  0  0  0
  1  2  2  0  0  0
  2  3  1  0  0  0
  3  4  1  0  0  0
  4  5  1  0  0  0
  5  6  1  0  0  0
  6  7  1  0  0  0
  7  8  1  0  0  0
  8  9  1  0  0  0
  9 10  1  0  0  0
 10 11  2  0  0  0
 11 12  1  0  0  0
 12 13  1  0  0  0
 13 14  1  0  0  0
 14 15  1  0  0  0
 15 16  1  0  0  0
 16 17  1  0  0  0
 17 18  1  0  0  0
 18 19  1  0  0  0
M  CHG 1  28  -1
M  END
> <minimizedAffinity>
-8.07161

> <CNNscore>
0.7622167468

> <CNNaffinity>
7.0084786415

> <CNN_VS>
5.3419799805

> <CNNaffinity_variance>
0.2753548920

$$$$
/media/chris/experiments/cd1a-new-docking/inputs/ligands/4x6e_ligand.pdb


 37 36  0  0  0  0  0  0  0  0999 V2000
  -43.6367   60.7415   62.4207 O   0  0  0  0  0  0  0  0  0  0  0  0
  -43.2610   59.8216   63.1044 C   0  0  0  0  0  0  0  0  0  0  0  0
  -44.1209   58.6959   63.5912 C   0  0  0  0  0  0  0  0  0  0  0  0
  -44.1134   58.5485   65.1080 C   0  0  0  0  0  0  0  0  0  0  0  0
  -44.6582   57.2222   65.6098 C   0  0  0  0  0  0  0  0  0  0  0  0
  -46.0063   57.3441   66.2979 C   0  0  0  0  0  0  0  0  0  0  0  0
  -46.4873   58.7808   66.4078 C   0  0  0  0  0  0  0  0  0  0  0  0
  -47.9773   58.9043   66.1799 C   0  0  0  0  0  0  0  0  0  0  0  0
  -48.4565   60.3055   65.8588 C   0  0  0  0  0  0  0  0  0  0  0  0
  -48.3867   60.6521   64.4210 C   0  0  0  0  0  0  0  0  0  0  0  0
  -49.3254   60.4320   63.5236 C   0  0  0  0  0  0  0  0  0  0  0  0
  -50.6724   59.8283   63.7553 C   0  0  0  0  0  0  0  0  0  0  0  0
  -50.8499   58.5856   62.8814 C   0  0  0  0  0  0  0  0  0  0  0  0
  -50.0174   58.5597   61.6079 C   0  0  0  0  0  0  0  0  0  0  0  0
  -50.4641   57.5405   60.5669 C   0  0  0  0  0  0  0  0  0  0  0  0
  -49.8546   57.7711   59.1879 C   0  0  0  0  0  0  0  0  0  0  0  0
  -48.5569   57.0130   58.9574 C   0  0  0  0  0  0  0  0  0  0  0  0
  -48.0276   57.0461   57.5316 C   0  0  0  0  0  0  0  0  0  0  0  0
  -47.0922   55.9146   57.2342 C   0  0  0  0  0  0  0  0  0  0  0  0
  -42.0023   59.6624   63.5238 O   0  0  0  0  0  0  0  0  0  0  0  0
  -40.9741   60.4511   62.8852 C   0  0  0  0  0  0  0  0  0  0  0  0
  -40.0847   59.6011   62.0026 C   0  0  0  0  0  0  0  0  0  0  0  0
  -40.7730   59.2018   60.8096 O   0  0  0  0  0  0  0  0  0  0  0  0
  -40.9997   59.9880   60.2886 H   0  0  0  0  0  0  0  0  0  0  0  0
  -38.7982   60.3002   61.6306 C   0  0  0  0  0  0  0  0  0  0  0  0
  -37.7021   59.9034   62.4899 O   0  0  0  0  0  0  0  0  0  0  0  0
  -37.1892   60.4505   63.9089 P   0  0  0  0  0  0  0  0  0  0  0  0
  -37.6581   59.4806   64.9923 O   0  0  0  0  0  0  0  0  0  0  0  0
  -37.8079   61.7706   64.1594 O   0  0  0  0  0  0  0  0  0  0  0  0
  -38.7737   61.6869   64.1248 H   0  0  0  0  0  0  0  0  0  0  0  0
  -35.5482   60.5481   63.9590 O   0  0  0  0  0  0  0  0  0  0  0  0
  -34.7657   61.7729   63.9393 C   0  0  0  0  0  0  0  0  0  0  0  0
  -34.5258   62.2611   65.3465 C   0  0  0  0  0  0  0  0  0  0  0  0
  -34.9362   63.6908   65.6465 N   0  0  0  0  0  0  0  0  0  0  0  0
  -36.1815   63.7158   66.4733 C   0  0  0  0  0  0  0  0  0  0  0  0
  -35.1970   64.3936   64.3548 C   0  0  0  0  0  0  0  0  0  0  0  0
  -33.8454   64.4066   66.3910 C   0  0  0  0  0  0  0  0  0  0  0  0
 34 33  1  0  0  0
 34 35  1  0  0  0
 34 36  1  0  0  0
 34 37  1  0  0  0
 22 23  1  0  0  0
 22 25  1  0  0  0
 22 21  1  0  0  0
 23 24  1  0  0  0
 27 26  1  0  0  0
 27 28  2  0  0  0
 27 31  1  0  0  0
 27 29  1  0  0  0
 25 26  1  0  0  0
 32 33  1  0  0  0
 32 31  1  0  0  0
 29 30  1  0  0  0
 20 21  1  0  0  0
 20  2  1  0  0  0
  1  2  2  0  0  0
  2  3  1  0  0  0
  3  4  1  0  0  0
  4  5  1  0  0  0
  5  6  1  0  0  0
  6  7  1  0  0  0
  7  8  1  0  0  0
  8  9  1  0  0  0
  9 10  1  0  0  0
 10 11  2  0  0  0
 11 12  1  0  0  0
 12 13  1  0  0  0
 13 14  1  0  0  0
 14 15  1  0  0  0
 15 16  1  0  0  0
 16 17  1  0  0  0
 17 18  1  0  0  0
 18 19  1  0  0  0
M  CHG 1  28  -1
M  END
> <minimizedAffinity>
-7.57034

> <CNNscore>
0.7006229758

> <CNNaffinity>
6.5901765823

> <CNN_VS>
4.6172289848

> <CNNaffinity_variance>
0.4732324481

$$$$
/media/chris/experiments/cd1a-new-docking/inputs/ligands/4x6e_ligand.pdb


 37 36  0  0  0  0  0  0  0  0999 V2000
  -39.8363   57.3344   63.1869 O   0  0  0  0  0  0  0  0  0  0  0  0
  -39.8378   58.1329   64.0908 C   0  0  0  0  0  0  0  0  0  0  0  0
  -40.9317   58.2964   65.1009 C   0  0  0  0  0  0  0  0  0  0  0  0
  -41.2045   59.7525   65.4587 C   0  0  0  0  0  0  0  0  0  0  0  0
  -41.8871   59.9489   66.8014 C   0  0  0  0  0  0  0  0  0  0  0  0
  -43.0552   59.0057   67.0293 C   0  0  0  0  0  0  0  0  0  0  0  0
  -44.3441   59.4945   66.3911 C   0  0  0  0  0  0  0  0  0  0  0  0
  -45.5672   58.8567   67.0113 C   0  0  0  0  0  0  0  0  0  0  0  0
  -46.7278   58.6510   66.0591 C   0  0  0  0  0  0  0  0  0  0  0  0
  -47.9008   59.5085   66.3437 C   0  0  0  0  0  0  0  0  0  0  0  0
  -48.8832   59.7807   65.5098 C   0  0  0  0  0  0  0  0  0  0  0  0
  -49.0579   59.2613   64.1197 C   0  0  0  0  0  0  0  0  0  0  0  0
  -49.8557   60.2606   63.2805 C   0  0  0  0  0  0  0  0  0  0  0  0
  -50.4483   59.7048   61.9938 C   0  0  0  0  0  0  0  0  0  0  0  0
  -50.9437   58.2664   62.0815 C   0  0  0  0  0  0  0  0  0  0  0  0
  -50.6350   57.4389   60.8379 C   0  0  0  0  0  0  0  0  0  0  0  0
  -49.8802   58.2060   59.7638 C   0  0  0  0  0  0  0  0  0  0  0  0
  -49.0620   57.3522   58.8068 C   0  0  0  0  0  0  0  0  0  0  0  0
  -48.2860   56.2788   59.5064 C   0  0  0  0  0  0  0  0  0  0  0  0
  -38.8446   58.9929   64.3352 O   0  0  0  0  0  0  0  0  0  0  0  0
  -37.4935   58.4815   64.3291 C   0  0  0  0  0  0  0  0  0  0  0  0
  -36.6241   59.2109   63.3269 C   0  0  0  0  0  0  0  0  0  0  0  0
  -37.3956   60.1432   62.5575 O   0  0  0  0  0  0  0  0  0  0  0  0
  -37.7605   60.8233   63.1450 H   0  0  0  0  0  0  0  0  0  0  0  0
  -35.4678   59.9325   63.9786 C   0  0  0  0  0  0  0  0  0  0  0  0
  -35.8055   60.4011   65.3067 O   0  0  0  0  0  0  0  0  0  0  0  0
  -36.5005   61.7488   65.8324 P   0  0  0  0  0  0  0  0  0  0  0  0
  -37.4367   61.3854   66.9838 O   0  0  0  0  0  0  0  0  0  0  0  0
  -37.3069   62.3255   64.7345 O   0  0  0  0  0  0  0  0  0  0  0  0
  -37.9557   61.6711   64.4316 H   0  0  0  0  0  0  0  0  0  0  0  0
  -35.3855   62.8285   66.3764 O   0  0  0  0  0  0  0  0  0  0  0  0
  -34.6304   63.7611   65.5561 C   0  0  0  0  0  0  0  0  0  0  0  0
  -33.1741   63.7410   65.9499 C   0  0  0  0  0  0  0  0  0  0  0  0
  -32.2270   64.5498   65.0830 N   0  0  0  0  0  0  0  0  0  0  0  0
  -31.2392   63.6531   64.4085 C   0  0  0  0  0  0  0  0  0  0  0  0
  -31.4912   65.5156   65.9526 C   0  0  0  0  0  0  0  0  0  0  0  0
  -32.9903   65.3068   64.0337 C   0  0  0  0  0  0  0  0  0  0  0  0
 34 33  1  0  0  0
 34 35  1  0  0  0
 34 36  1  0  0  0
 34 37  1  0  0  0
 22 23  1  0  0  0
 22 25  1  0  0  0
 22 21  1  0  0  0
 23 24  1  0  0  0
 27 26  1  0  0  0
 27 28  2  0  0  0
 27 31  1  0  0  0
 27 29  1  0  0  0
 25 26  1  0  0  0
 32 33  1  0  0  0
 32 31  1  0  0  0
 29 30  1  0  0  0
 20 21  1  0  0  0
 20  2  1  0  0  0
  1  2  2  0  0  0
  2  3  1  0  0  0
  3  4  1  0  0  0
  4  5  1  0  0  0
  5  6  1  0  0  0
  6  7  1  0  0  0
  7  8  1  0  0  0
  8  9  1  0  0  0
  9 10  1  0  0  0
 10 11  2  0  0  0
 11 12  1  0  0  0
 12 13  1  0  0  0
 13 14  1  0  0  0
 14 15  1  0  0  0
 15 16  1  0  0  0
 16 17  1  0  0  0
 17 18  1  0  0  0
 18 19  1  0  0  0
M  CHG 1  28  -1
M  END
> <minimizedAffinity>
-7.59798

> <CNNscore>
0.6513899565

> <CNNaffinity>
6.2008094788

> <CNN_VS>
4.0391449928

> <CNNaffinity_variance>
0.2388374358

$$$$
/media/chris/experiments/cd1a-new-docking/inputs/ligands/4x6e_ligand.pdb


 37 36  0  0  0  0  0  0  0  0999 V2000
  -42.4012   55.6270   64.8332 O   0  0  0  0  0  0  0  0  0  0  0  0
  -42.6129   56.8094   64.9423 C   0  0  0  0  0  0  0  0  0  0  0  0
  -43.9659   57.4518   64.9348 C   0  0  0  0  0  0  0  0  0  0  0  0
  -44.1328   58.4852   63.8271 C   0  0  0  0  0  0  0  0  0  0  0  0
  -44.8298   59.7624   64.2635 C   0  0  0  0  0  0  0  0  0  0  0  0
  -45.4872   59.6561   65.6282 C   0  0  0  0  0  0  0  0  0  0  0  0
  -46.9465   60.0777   65.6168 C   0  0  0  0  0  0  0  0  0  0  0  0
  -47.8287   59.1059   66.3683 C   0  0  0  0  0  0  0  0  0  0  0  0
  -48.6372   58.1726   65.4901 C   0  0  0  0  0  0  0  0  0  0  0  0
  -50.0611   58.5550   65.3540 C   0  0  0  0  0  0  0  0  0  0  0  0
  -50.5639   59.3617   64.4424 C   0  0  0  0  0  0  0  0  0  0  0  0
  -49.8301   60.0338   63.3277 C   0  0  0  0  0  0  0  0  0  0  0  0
  -50.3998   59.5903   61.9793 C   0  0  0  0  0  0  0  0  0  0  0  0
  -50.9676   58.1789   61.9438 C   0  0  0  0  0  0  0  0  0  0  0  0
  -50.8759   57.4815   60.5921 C   0  0  0  0  0  0  0  0  0  0  0  0
  -49.7568   58.0173   59.7049 C   0  0  0  0  0  0  0  0  0  0  0  0
  -48.8062   56.9424   59.2021 C   0  0  0  0  0  0  0  0  0  0  0  0
  -48.2116   57.1914   57.8242 C   0  0  0  0  0  0  0  0  0  0  0  0
  -47.1595   56.1903   57.4574 C   0  0  0  0  0  0  0  0  0  0  0  0
  -41.6591   57.7319   65.1006 O   0  0  0  0  0  0  0  0  0  0  0  0
  -40.4084   57.5345   64.4051 C   0  0  0  0  0  0  0  0  0  0  0  0
  -39.4186   58.6390   64.7101 C   0  0  0  0  0  0  0  0  0  0  0  0
  -39.9690   59.5818   65.6399 O   0  0  0  0  0  0  0  0  0  0  0  0
  -40.1474   59.1376   66.4835 H   0  0  0  0  0  0  0  0  0  0  0  0
  -38.1078   58.1119   65.2452 C   0  0  0  0  0  0  0  0  0  0  0  0
  -36.9974   58.9715   64.8913 O   0  0  0  0  0  0  0  0  0  0  0  0
  -35.6163   58.6912   64.1232 P   0  0  0  0  0  0  0  0  0  0  0  0
  -35.8960   58.6951   62.6213 O   0  0  0  0  0  0  0  0  0  0  0  0
  -35.1246   57.3498   64.5069 O   0  0  0  0  0  0  0  0  0  0  0  0
  -35.8013   56.6862   64.3007 H   0  0  0  0  0  0  0  0  0  0  0  0
  -34.4963   59.8486   64.4568 O   0  0  0  0  0  0  0  0  0  0  0  0
  -34.6105   61.2625   64.1394 C   0  0  0  0  0  0  0  0  0  0  0  0
  -34.5219   62.0884   65.3988 C   0  0  0  0  0  0  0  0  0  0  0  0
  -35.7617   62.8751   65.7814 N   0  0  0  0  0  0  0  0  0  0  0  0
  -36.2073   63.7366   64.6437 C   0  0  0  0  0  0  0  0  0  0  0  0
  -35.4333   63.7454   66.9497 C   0  0  0  0  0  0  0  0  0  0  0  0
  -36.8815   61.9452   66.1530 C   0  0  0  0  0  0  0  0  0  0  0  0
 34 33  1  0  0  0
 34 35  1  0  0  0
 34 36  1  0  0  0
 34 37  1  0  0  0
 22 23  1  0  0  0
 22 25  1  0  0  0
 22 21  1  0  0  0
 23 24  1  0  0  0
 27 26  1  0  0  0
 27 28  2  0  0  0
 27 31  1  0  0  0
 27 29  1  0  0  0
 25 26  1  0  0  0
 32 33  1  0  0  0
 32 31  1  0  0  0
 29 30  1  0  0  0
 20 21  1  0  0  0
 20  2  1  0  0  0
  1  2  2  0  0  0
  2  3  1  0  0  0
  3  4  1  0  0  0
  4  5  1  0  0  0
  5  6  1  0  0  0
  6  7  1  0  0  0
  7  8  1  0  0  0
  8  9  1  0  0  0
  9 10  1  0  0  0
 10 11  2  0  0  0
 11 12  1  0  0  0
 12 13  1  0  0  0
 13 14  1  0  0  0
 14 15  1  0  0  0
 15 16  1  0  0  0
 16 17  1  0  0  0
 17 18  1  0  0  0
 18 19  1  0  0  0
M  CHG 1  28  -1
M  END
> <minimizedAffinity>
-7.98273

> <CNNscore>
0.5731588006

> <CNNaffinity>
6.5375227928

> <CNN_VS>
3.7470388412

> <CNNaffinity_variance>
0.3695020974

$$$$
/media/chris/experiments/cd1a-new-docking/inputs/ligands/4x6e_ligand.pdb


 37 36  0  0  0  0  0  0  0  0999 V2000
  -39.4780   58.0769   62.3333 O   0  0  0  0  0  0  0  0  0  0  0  0
  -40.2203   57.6914   63.2024 C   0  0  0  0  0  0  0  0  0  0  0  0
  -41.6670   57.3497   63.0180 C   0  0  0  0  0  0  0  0  0  0  0  0
  -42.4313   58.3931   62.2119 C   0  0  0  0  0  0  0  0  0  0  0  0
  -43.4653   59.1667   63.0119 C   0  0  0  0  0  0  0  0  0  0  0  0
  -43.7985   58.5263   64.3479 C   0  0  0  0  0  0  0  0  0  0  0  0
  -45.2722   58.6279   64.7019 C   0  0  0  0  0  0  0  0  0  0  0  0
  -45.9175   59.8640   64.1161 C   0  0  0  0  0  0  0  0  0  0  0  0
  -47.4081   59.9796   64.3627 C   0  0  0  0  0  0  0  0  0  0  0  0
  -48.1144   58.6792   64.4086 C   0  0  0  0  0  0  0  0  0  0  0  0
  -49.3535   58.4555   64.0222 C   0  0  0  0  0  0  0  0  0  0  0  0
  -50.3031   59.4392   63.4195 C   0  0  0  0  0  0  0  0  0  0  0  0
  -51.1777   58.7517   62.3698 C   0  0  0  0  0  0  0  0  0  0  0  0
  -50.4396   57.8355   61.4047 C   0  0  0  0  0  0  0  0  0  0  0  0
  -49.8049   58.5360   60.2095 C   0  0  0  0  0  0  0  0  0  0  0  0
  -49.4958   57.5980   59.0472 C   0  0  0  0  0  0  0  0  0  0  0  0
  -48.6913   56.3715   59.4475 C   0  0  0  0  0  0  0  0  0  0  0  0
  -47.4763   56.0780   58.5803 C   0  0  0  0  0  0  0  0  0  0  0  0
  -47.5229   56.7828   57.2595 C   0  0  0  0  0  0  0  0  0  0  0  0
  -39.8533   57.4978   64.4726 O   0  0  0  0  0  0  0  0  0  0  0  0
  -38.8019   58.3332   65.0053 C   0  0  0  0  0  0  0  0  0  0  0  0
  -39.3364   59.6645   65.4891 C   0  0  0  0  0  0  0  0  0  0  0  0
  -40.5764   59.4980   66.1899 O   0  0  0  0  0  0  0  0  0  0  0  0
  -40.4294   58.9606   66.9839 H   0  0  0  0  0  0  0  0  0  0  0  0
  -38.3543   60.3976   66.3725 C   0  0  0  0  0  0  0  0  0  0  0  0
  -38.0012   61.6917   65.8266 O   0  0  0  0  0  0  0  0  0  0  0  0
  -36.6310   62.5273   65.8278 P   0  0  0  0  0  0  0  0  0  0  0  0
  -36.1751   62.6948   67.2763 O   0  0  0  0  0  0  0  0  0  0  0  0
  -36.8927   63.8675   65.2589 O   0  0  0  0  0  0  0  0  0  0  0  0
  -37.5909   64.3052   65.7707 H   0  0  0  0  0  0  0  0  0  0  0  0
  -35.4507   61.7491   64.9873 O   0  0  0  0  0  0  0  0  0  0  0  0
  -35.6562   60.7095   63.9924 C   0  0  0  0  0  0  0  0  0  0  0  0
  -34.4719   59.7753   63.9621 C   0  0  0  0  0  0  0  0  0  0  0  0
  -34.7492   58.3439   63.5419 N   0  0  0  0  0  0  0  0  0  0  0  0
  -33.5583   57.7606   62.8514 C   0  0  0  0  0  0  0  0  0  0  0  0
  -35.9076   58.3390   62.5993 C   0  0  0  0  0  0  0  0  0  0  0  0
  -35.0782   57.4980   64.7389 C   0  0  0  0  0  0  0  0  0  0  0  0
 34 33  1  0  0  0
 34 35  1  0  0  0
 34 36  1  0  0  0
 34 37  1  0  0  0
 22 23  1  0  0  0
 22 25  1  0  0  0
 22 21  1  0  0  0
 23 24  1  0  0  0
 27 26  1  0  0  0
 27 28  2  0  0  0
 27 31  1  0  0  0
 27 29  1  0  0  0
 25 26  1  0  0  0
 32 33  1  0  0  0
 32 31  1  0  0  0
 29 30  1  0  0  0
 20 21  1  0  0  0
 20  2  1  0  0  0
  1  2  2  0  0  0
  2  3  1  0  0  0
  3  4  1  0  0  0
  4  5  1  0  0  0
  5  6  1  0  0  0
  6  7  1  0  0  0
  7  8  1  0  0  0
  8  9  1  0  0  0
  9 10  1  0  0  0
 10 11  2  0  0  0
 11 12  1  0  0  0
 12 13  1  0  0  0
 13 14  1  0  0  0
 14 15  1  0  0  0
 15 16  1  0  0  0
 16 17  1  0  0  0
 17 18  1  0  0  0
 18 19  1  0  0  0
M  CHG 1  28  -1
M  END
> <minimizedAffinity>
-7.69954

> <CNNscore>
0.5637251735

> <CNNaffinity>
6.7086572647

> <CNN_VS>
3.7818388939

> <CNNaffinity_variance>
0.2466957122

$$$$
/media/chris/experiments/cd1a-new-docking/inputs/ligands/4x6e_ligand.pdb


 37 36  0  0  0  0  0  0  0  0999 V2000
  -41.3624   56.1989   62.7724 O   0  0  0  0  0  0  0  0  0  0  0  0
  -41.4607   56.6363   63.8920 C   0  0  0  0  0  0  0  0  0  0  0  0
  -42.6296   56.4265   64.8049 C   0  0  0  0  0  0  0  0  0  0  0  0
  -43.4071   57.7065   65.0871 C   0  0  0  0  0  0  0  0  0  0  0  0
  -43.9736   58.3797   63.8487 C   0  0  0  0  0  0  0  0  0  0  0  0
  -45.3839   58.9091   64.0403 C   0  0  0  0  0  0  0  0  0  0  0  0
  -45.5034   59.8639   65.2156 C   0  0  0  0  0  0  0  0  0  0  0  0
  -46.8595   59.7858   65.8806 C   0  0  0  0  0  0  0  0  0  0  0  0
  -48.0378   59.8818   64.9328 C   0  0  0  0  0  0  0  0  0  0  0  0
  -48.9519   58.7184   64.9871 C   0  0  0  0  0  0  0  0  0  0  0  0
  -50.1749   58.6694   64.5007 C   0  0  0  0  0  0  0  0  0  0  0  0
  -50.8949   59.7472   63.7574 C   0  0  0  0  0  0  0  0  0  0  0  0
  -50.8830   59.4505   62.2570 C   0  0  0  0  0  0  0  0  0  0  0  0
  -51.1150   57.9950   61.8784 C   0  0  0  0  0  0  0  0  0  0  0  0
  -50.5493   57.5835   60.5246 C   0  0  0  0  0  0  0  0  0  0  0  0
  -49.0659   57.2311   60.5659 C   0  0  0  0  0  0  0  0  0  0  0  0
  -48.5835   56.4682   59.3424 C   0  0  0  0  0  0  0  0  0  0  0  0
  -48.3710   57.3088   58.0924 C   0  0  0  0  0  0  0  0  0  0  0  0
  -47.7967   56.5214   56.9550 C   0  0  0  0  0  0  0  0  0  0  0  0
  -40.5231   57.3723   64.4961 O   0  0  0  0  0  0  0  0  0  0  0  0
  -39.9373   58.4621   63.7503 C   0  0  0  0  0  0  0  0  0  0  0  0
  -38.4912   58.1846   63.3975 C   0  0  0  0  0  0  0  0  0  0  0  0
  -38.3857   57.0843   62.4839 O   0  0  0  0  0  0  0  0  0  0  0  0
  -38.8286   57.3117   61.6515 H   0  0  0  0  0  0  0  0  0  0  0  0
  -37.7946   59.3913   62.8138 C   0  0  0  0  0  0  0  0  0  0  0  0
  -38.0050   60.5763   63.6194 O   0  0  0  0  0  0  0  0  0  0  0  0
  -37.0581   61.8221   63.9762 P   0  0  0  0  0  0  0  0  0  0  0  0
  -37.4874   62.3746   65.3343 O   0  0  0  0  0  0  0  0  0  0  0  0
  -37.2557   62.8749   62.9560 O   0  0  0  0  0  0  0  0  0  0  0  0
  -38.1931   63.1226   62.9244 H   0  0  0  0  0  0  0  0  0  0  0  0
  -35.4784   61.3722   64.0623 O   0  0  0  0  0  0  0  0  0  0  0  0
  -34.3336   62.2670   64.0242 C   0  0  0  0  0  0  0  0  0  0  0  0
  -34.6493   63.5490   64.7542 C   0  0  0  0  0  0  0  0  0  0  0  0
  -33.4748   64.4583   65.0648 N   0  0  0  0  0  0  0  0  0  0  0  0
  -32.1981   63.6805   65.0735 C   0  0  0  0  0  0  0  0  0  0  0  0
  -33.6836   65.0637   66.4140 C   0  0  0  0  0  0  0  0  0  0  0  0
  -33.3698   65.5514   64.0399 C   0  0  0  0  0  0  0  0  0  0  0  0
 34 33  1  0  0  0
 34 35  1  0  0  0
 34 36  1  0  0  0
 34 37  1  0  0  0
 22 23  1  0  0  0
 22 25  1  0  0  0
 22 21  1  0  0  0
 23 24  1  0  0  0
 27 26  1  0  0  0
 27 28  2  0  0  0
 27 31  1  0  0  0
 27 29  1  0  0  0
 25 26  1  0  0  0
 32 33  1  0  0  0
 32 31  1  0  0  0
 29 30  1  0  0  0
 20 21  1  0  0  0
 20  2  1  0  0  0
  1  2  2  0  0  0
  2  3  1  0  0  0
  3  4  1  0  0  0
  4  5  1  0  0  0
  5  6  1  0  0  0
  6  7  1  0  0  0
  7  8  1  0  0  0
  8  9  1  0  0  0
  9 10  1  0  0  0
 10 11  2  0  0  0
 11 12  1  0  0  0
 12 13  1  0  0  0
 13 14  1  0  0  0
 14 15  1  0  0  0
 15 16  1  0  0  0
 16 17  1  0  0  0
 17 18  1  0  0  0
 18 19  1  0  0  0
M  CHG 1  28  -1
M  END
> <minimizedAffinity>
-7.90861

> <CNNscore>
0.5517874360

> <CNNaffinity>
6.2750144005

> <CNN_VS>
3.4624741077

> <CNNaffinity_variance>
0.2628756762

$$$$
