/media/chris/experiments/cd1a-new-docking/inputs/ligands/4x6e_ligand.pdb


 37 36  0  0  0  0  0  0  0  0999 V2000
  -42.5419   58.8316   63.6556 O   0  0  0  0  0  0  0  0  0  0  0  0
  -42.7430   59.1088   64.8120 C   0  0  0  0  0  0  0  0  0  0  0  0
  -43.9936   59.7349   65.3483 C   0  0  0  0  0  0  0  0  0  0  0  0
  -44.4551   59.1201   66.6642 C   0  0  0  0  0  0  0  0  0  0  0  0
  -45.1580   57.7817   66.5163 C   0  0  0  0  0  0  0  0  0  0  0  0
  -46.6519   57.8511   66.7803 C   0  0  0  0  0  0  0  0  0  0  0  0
  -47.2919   59.1149   66.2320 C   0  0  0  0  0  0  0  0  0  0  0  0
  -47.6458   58.9877   64.7670 C   0  0  0  0  0  0  0  0  0  0  0  0
  -48.8444   58.1072   64.4777 C   0  0  0  0  0  0  0  0  0  0  0  0
  -50.1456   58.7325   64.8063 C   0  0  0  0  0  0  0  0  0  0  0  0
  -50.9132   59.4081   63.9760 C   0  0  0  0  0  0  0  0  0  0  0  0
  -50.6702   59.6595   62.5234 C   0  0  0  0  0  0  0  0  0  0  0  0
  -50.9724   58.3982   61.7127 C   0  0  0  0  0  0  0  0  0  0  0  0
  -49.9870   58.0899   60.5949 C   0  0  0  0  0  0  0  0  0  0  0  0
  -49.2771   56.7466   60.7143 C   0  0  0  0  0  0  0  0  0  0  0  0
  -48.4531   56.3817   59.4839 C   0  0  0  0  0  0  0  0  0  0  0  0
  -48.6558   57.3255   58.3092 C   0  0  0  0  0  0  0  0  0  0  0  0
  -47.6574   57.1734   57.1714 C   0  0  0  0  0  0  0  0  0  0  0  0
  -47.0520   55.8047   57.1106 C   0  0  0  0  0  0  0  0  0  0  0  0
  -41.8726   58.8839   65.8008 O   0  0  0  0  0  0  0  0  0  0  0  0
  -40.4648   58.9071   65.4779 C   0  0  0  0  0  0  0  0  0  0  0  0
  -39.9036   60.3125   65.5241 C   0  0  0  0  0  0  0  0  0  0  0  0
  -40.6401   61.1318   66.4420 O   0  0  0  0  0  0  0  0  0  0  0  0
  -40.5491   60.7743   67.3392 H   0  0  0  0  0  0  0  0  0  0  0  0
  -38.4381   60.3403   65.8898 C   0  0  0  0  0  0  0  0  0  0  0  0
  -37.7522   61.4605   65.2798 O   0  0  0  0  0  0  0  0  0  0  0  0
  -37.1848   61.7028   63.7981 P   0  0  0  0  0  0  0  0  0  0  0  0
  -35.6590   61.7332   63.8703 O   0  0  0  0  0  0  0  0  0  0  0  0
  -37.6594   63.0193   63.3184 O   0  0  0  0  0  0  0  0  0  0  0  0
  -37.3772   63.7102   63.9380 H   0  0  0  0  0  0  0  0  0  0  0  0
  -37.6431   60.5004   62.7739 O   0  0  0  0  0  0  0  0  0  0  0  0
  -38.6931   60.5871   61.7725 C   0  0  0  0  0  0  0  0  0  0  0  0
  -39.5836   59.3714   61.8440 C   0  0  0  0  0  0  0  0  0  0  0  0
  -39.1804   58.1854   60.9874 N   0  0  0  0  0  0  0  0  0  0  0  0
  -40.3660   57.6380   60.2593 C   0  0  0  0  0  0  0  0  0  0  0  0
  -38.6230   57.1223   61.8761 C   0  0  0  0  0  0  0  0  0  0  0  0
  -38.1394   58.5909   59.9832 C   0  0  0  0  0  0  0  0  0  0  0  0
 34 33  1  0  0  0
 34 35  1  0  0  0
 34 36  1  0  0  0
 34 37  1  0  0  0
 22 23  1  0  0  0
 22 25  1  0  0  0
 22 21  1  0  0  0
 23 24  1  0  0  0
 27 26  1  0  0  0
 27 28  2  0  0  0
 27 31  1  0  0  0
 27 29  1  0  0  0
 25 26  1  0  0  0
 32 33  1  0  0  0
 32 31  1  0  0  0
 29 30  1  0  0  0
 20 21  1  0  0  0
 20  2  1  0  0  0
  1  2  2  0  0  0
  2  3  1  0  0  0
  3  4  1  0  0  0
  4  5  1  0  0  0
  5  6  1  0  0  0
  6  7  1  0  0  0
  7  8  1  0  0  0
  8  9  1  0  0  0
  9 10  1  0  0  0
 10 11  2  0  0  0
 11 12  1  0  0  0
 12 13  1  0  0  0
 13 14  1  0  0  0
 14 15  1  0  0  0
 15 16  1  0  0  0
 16 17  1  0  0  0
 17 18  1  0  0  0
 18 19  1  0  0  0
M  CHG 1  28  -1
M  END
> <minimizedAffinity>
-7.99988

> <CNNscore>
0.8489954472

> <CNNaffinity>
7.1797533035

> <CNN_VS>
6.0955777168

> <CNNaffinity_variance>
0.1095658168

$$$$
/media/chris/experiments/cd1a-new-docking/inputs/ligands/4x6e_ligand.pdb


 37 36  0  0  0  0  0  0  0  0999 V2000
  -42.1853   56.7228   64.1998 O   0  0  0  0  0  0  0  0  0  0  0  0
  -42.4496   57.8545   64.5225 C   0  0  0  0  0  0  0  0  0  0  0  0
  -43.7263   58.5705   64.2048 C   0  0  0  0  0  0  0  0  0  0  0  0
  -44.2197   59.4513   65.3465 C   0  0  0  0  0  0  0  0  0  0  0  0
  -44.7317   58.6828   66.5526 C   0  0  0  0  0  0  0  0  0  0  0  0
  -45.3830   57.3588   66.1936 C   0  0  0  0  0  0  0  0  0  0  0  0
  -46.6128   57.0573   67.0326 C   0  0  0  0  0  0  0  0  0  0  0  0
  -47.8561   56.8935   66.1870 C   0  0  0  0  0  0  0  0  0  0  0  0
  -48.4894   58.1924   65.7313 C   0  0  0  0  0  0  0  0  0  0  0  0
  -48.1660   58.5639   64.3351 C   0  0  0  0  0  0  0  0  0  0  0  0
  -49.0354   58.8246   63.3805 C   0  0  0  0  0  0  0  0  0  0  0  0
  -50.5248   58.8449   63.4966 C   0  0  0  0  0  0  0  0  0  0  0  0
  -51.1632   58.5769   62.1327 C   0  0  0  0  0  0  0  0  0  0  0  0
  -50.2161   58.6501   60.9439 C   0  0  0  0  0  0  0  0  0  0  0  0
  -50.2220   57.4238   60.0391 C   0  0  0  0  0  0  0  0  0  0  0  0
  -49.1346   57.4503   58.9700 C   0  0  0  0  0  0  0  0  0  0  0  0
  -48.1334   56.3119   59.0866 C   0  0  0  0  0  0  0  0  0  0  0  0
  -47.2905   56.0561   57.8463 C   0  0  0  0  0  0  0  0  0  0  0  0
  -47.4064   57.1509   56.8307 C   0  0  0  0  0  0  0  0  0  0  0  0
  -41.6362   58.6430   65.2313 O   0  0  0  0  0  0  0  0  0  0  0  0
  -40.2151   58.5281   64.9991 C   0  0  0  0  0  0  0  0  0  0  0  0
  -39.5712   59.8825   64.7910 C   0  0  0  0  0  0  0  0  0  0  0  0
  -40.5559   60.9248   64.7774 O   0  0  0  0  0  0  0  0  0  0  0  0
  -40.9969   60.9644   65.6406 H   0  0  0  0  0  0  0  0  0  0  0  0
  -38.5242   60.1937   65.8347 C   0  0  0  0  0  0  0  0  0  0  0  0
  -38.1113   61.5810   65.7859 O   0  0  0  0  0  0  0  0  0  0  0  0
  -36.7028   62.2781   65.4599 P   0  0  0  0  0  0  0  0  0  0  0  0
  -36.9351   63.3487   64.3950 O   0  0  0  0  0  0  0  0  0  0  0  0
  -35.7853   61.2571   64.9083 O   0  0  0  0  0  0  0  0  0  0  0  0
  -36.1860   60.8526   64.1230 H   0  0  0  0  0  0  0  0  0  0  0  0
  -36.0601   62.9900   66.7959 O   0  0  0  0  0  0  0  0  0  0  0  0
  -35.0450   64.0305   66.8031 C   0  0  0  0  0  0  0  0  0  0  0  0
  -33.6994   63.4487   66.4472 C   0  0  0  0  0  0  0  0  0  0  0  0
  -33.0260   64.0083   65.2078 N   0  0  0  0  0  0  0  0  0  0  0  0
  -32.8819   62.9463   64.1653 C   0  0  0  0  0  0  0  0  0  0  0  0
  -31.6692   64.5056   65.5850 C   0  0  0  0  0  0  0  0  0  0  0  0
  -33.8307   65.1414   64.6376 C   0  0  0  0  0  0  0  0  0  0  0  0
 34 33  1  0  0  0
 34 35  1  0  0  0
 34 36  1  0  0  0
 34 37  1  0  0  0
 22 23  1  0  0  0
 22 25  1  0  0  0
 22 21  1  0  0  0
 23 24  1  0  0  0
 27 26  1  0  0  0
 27 28  2  0  0  0
 27 31  1  0  0  0
 27 29  1  0  0  0
 25 26  1  0  0  0
 32 33  1  0  0  0
 32 31  1  0  0  0
 29 30  1  0  0  0
 20 21  1  0  0  0
 20  2  1  0  0  0
  1  2  2  0  0  0
  2  3  1  0  0  0
  3  4  1  0  0  0
  4  5  1  0  0  0
  5  6  1  0  0  0
  6  7  1  0  0  0
  7  8  1  0  0  0
  8  9  1  0  0  0
  9 10  1  0  0  0
 10 11  2  0  0  0
 11 12  1  0  0  0
 12 13  1  0  0  0
 13 14  1  0  0  0
 14 15  1  0  0  0
 15 16  1  0  0  0
 16 17  1  0  0  0
 17 18  1  0  0  0
 18 19  1  0  0  0
M  CHG 1  28  -1
M  END
> <minimizedAffinity>
-7.98728

> <CNNscore>
0.8434769511

> <CNNaffinity>
6.4801254272

> <CNN_VS>
5.4658365250

> <CNNaffinity_variance>
0.1771342307

$$$$
/media/chris/experiments/cd1a-new-docking/inputs/ligands/4x6e_ligand.pdb


 37 36  0  0  0  0  0  0  0  0999 V2000
  -42.0589   55.2629   64.6327 O   0  0  0  0  0  0  0  0  0  0  0  0
  -42.4642   56.3973   64.6923 C   0  0  0  0  0  0  0  0  0  0  0  0
  -43.2258   56.9863   65.8398 C   0  0  0  0  0  0  0  0  0  0  0  0
  -44.4946   57.7118   65.4079 C   0  0  0  0  0  0  0  0  0  0  0  0
  -44.9279   58.8253   66.3458 C   0  0  0  0  0  0  0  0  0  0  0  0
  -46.3844   58.7298   66.7651 C   0  0  0  0  0  0  0  0  0  0  0  0
  -46.9211   57.3095   66.7212 C   0  0  0  0  0  0  0  0  0  0  0  0
  -48.2836   57.2327   66.0690 C   0  0  0  0  0  0  0  0  0  0  0  0
  -48.4634   58.1364   64.8661 C   0  0  0  0  0  0  0  0  0  0  0  0
  -49.5972   59.0810   64.9853 C   0  0  0  0  0  0  0  0  0  0  0  0
  -50.5608   59.2514   64.1036 C   0  0  0  0  0  0  0  0  0  0  0  0
  -50.7504   58.5124   62.8190 C   0  0  0  0  0  0  0  0  0  0  0  0
  -50.3501   59.3979   61.6378 C   0  0  0  0  0  0  0  0  0  0  0  0
  -49.7075   58.6704   60.4659 C   0  0  0  0  0  0  0  0  0  0  0  0
  -49.3459   57.2140   60.7318 C   0  0  0  0  0  0  0  0  0  0  0  0
  -48.6938   56.5210   59.5399 C   0  0  0  0  0  0  0  0  0  0  0  0
  -48.8157   57.2972   58.2383 C   0  0  0  0  0  0  0  0  0  0  0  0
  -47.6468   57.1443   57.2766 C   0  0  0  0  0  0  0  0  0  0  0  0
  -47.1669   55.7296   57.1679 C   0  0  0  0  0  0  0  0  0  0  0  0
  -42.2803   57.3120   63.7356 O   0  0  0  0  0  0  0  0  0  0  0  0
  -41.4247   56.9634   62.6252 C   0  0  0  0  0  0  0  0  0  0  0  0
  -41.2303   58.1308   61.6810 C   0  0  0  0  0  0  0  0  0  0  0  0
  -41.9718   57.9419   60.4682 O   0  0  0  0  0  0  0  0  0  0  0  0
  -42.9201   57.9121   60.6703 H   0  0  0  0  0  0  0  0  0  0  0  0
  -41.6150   59.4519   62.3048 C   0  0  0  0  0  0  0  0  0  0  0  0
  -40.5189   60.3981   62.2802 O   0  0  0  0  0  0  0  0  0  0  0  0
  -39.0223   60.3330   62.8563 P   0  0  0  0  0  0  0  0  0  0  0  0
  -38.0638   60.1696   61.6778 O   0  0  0  0  0  0  0  0  0  0  0  0
  -38.9019   59.1445   63.7289 O   0  0  0  0  0  0  0  0  0  0  0  0
  -39.1376   58.3490   63.2263 H   0  0  0  0  0  0  0  0  0  0  0  0
  -38.6307   61.7066   63.6715 O   0  0  0  0  0  0  0  0  0  0  0  0
  -37.4412   62.5147   63.4592 C   0  0  0  0  0  0  0  0  0  0  0  0
  -36.2399   61.8480   64.0823 C   0  0  0  0  0  0  0  0  0  0  0  0
  -35.9854   62.1448   65.5486 N   0  0  0  0  0  0  0  0  0  0  0  0
  -36.8550   61.2907   66.4145 C   0  0  0  0  0  0  0  0  0  0  0  0
  -36.3037   63.5809   65.8072 C   0  0  0  0  0  0  0  0  0  0  0  0
  -34.5479   61.8831   65.8970 C   0  0  0  0  0  0  0  0  0  0  0  0
 34 33  1  0  0  0
 34 35  1  0  0  0
 34 36  1  0  0  0
 34 37  1  0  0  0
 22 23  1  0  0  0
 22 25  1  0  0  0
 22 21  1  0  0  0
 23 24  1  0  0  0
 27 26  1  0  0  0
 27 28  2  0  0  0
 27 31  1  0  0  0
 27 29  1  0  0  0
 25 26  1  0  0  0
 32 33  1  0  0  0
 32 31  1  0  0  0
 29 30  1  0  0  0
 20 21  1  0  0  0
 20  2  1  0  0  0
  1  2  2  0  0  0
  2  3  1  0  0  0
  3  4  1  0  0  0
  4  5  1  0  0  0
  5  6  1  0  0  0
  6  7  1  0  0  0
  7  8  1  0  0  0
  8  9  1  0  0  0
  9 10  1  0  0  0
 10 11  2  0  0  0
 11 12  1  0  0  0
 12 13  1  0  0  0
 13 14  1  0  0  0
 14 15  1  0  0  0
 15 16  1  0  0  0
 16 17  1  0  0  0
 17 18  1  0  0  0
 18 19  1  0  0  0
M  CHG 1  28  -1
M  END
> <minimizedAffinity>
-7.96083

> <CNNscore>
0.7789226770

> <CNNaffinity>
6.8697228432

> <CNN_VS>
5.3509831429

> <CNNaffinity_variance>
0.3300312757

$$$$
/media/chris/experiments/cd1a-new-docking/inputs/ligands/4x6e_ligand.pdb


 37 36  0  0  0  0  0  0  0  0999 V2000
  -42.3651   58.9006   67.2447 O   0  0  0  0  0  0  0  0  0  0  0  0
  -41.9836   59.3387   66.1877 C   0  0  0  0  0  0  0  0  0  0  0  0
  -42.8098   60.1486   65.2363 C   0  0  0  0  0  0  0  0  0  0  0  0
  -43.9287   59.3470   64.5818 C   0  0  0  0  0  0  0  0  0  0  0  0
  -45.1847   60.1501   64.2899 C   0  0  0  0  0  0  0  0  0  0  0  0
  -46.2833   59.9489   65.3188 C   0  0  0  0  0  0  0  0  0  0  0  0
  -46.2624   58.5648   65.9444 C   0  0  0  0  0  0  0  0  0  0  0  0
  -47.6399   58.1091   66.3713 C   0  0  0  0  0  0  0  0  0  0  0  0
  -48.6510   58.0061   65.2475 C   0  0  0  0  0  0  0  0  0  0  0  0
  -49.9411   58.6738   65.5337 C   0  0  0  0  0  0  0  0  0  0  0  0
  -50.6490   59.3900   64.6846 C   0  0  0  0  0  0  0  0  0  0  0  0
  -50.3375   59.6548   63.2475 C   0  0  0  0  0  0  0  0  0  0  0  0
  -50.7981   58.4797   62.3836 C   0  0  0  0  0  0  0  0  0  0  0  0
  -49.6993   57.7762   61.6003 C   0  0  0  0  0  0  0  0  0  0  0  0
  -50.1315   57.2060   60.2547 C   0  0  0  0  0  0  0  0  0  0  0  0
  -49.0928   57.3901   59.1532 C   0  0  0  0  0  0  0  0  0  0  0  0
  -48.1147   56.2321   59.0341 C   0  0  0  0  0  0  0  0  0  0  0  0
  -47.6433   55.9200   57.6217 C   0  0  0  0  0  0  0  0  0  0  0  0
  -47.3732   57.1530   56.8152 C   0  0  0  0  0  0  0  0  0  0  0  0
  -40.7470   59.1744   65.7087 O   0  0  0  0  0  0  0  0  0  0  0  0
  -39.7382   60.1293   66.1051 C   0  0  0  0  0  0  0  0  0  0  0  0
  -38.6777   60.2981   65.0378 C   0  0  0  0  0  0  0  0  0  0  0  0
  -39.0832   61.2614   64.0560 O   0  0  0  0  0  0  0  0  0  0  0  0
  -39.1842   62.1295   64.4771 H   0  0  0  0  0  0  0  0  0  0  0  0
  -37.3374   60.6968   65.6095 C   0  0  0  0  0  0  0  0  0  0  0  0
  -37.3269   62.0783   66.0439 O   0  0  0  0  0  0  0  0  0  0  0  0
  -36.2059   63.2248   65.9725 P   0  0  0  0  0  0  0  0  0  0  0  0
  -34.8908   62.6391   66.4840 O   0  0  0  0  0  0  0  0  0  0  0  0
  -36.6057   64.3344   66.8654 O   0  0  0  0  0  0  0  0  0  0  0  0
  -36.7292   63.9964   67.7662 H   0  0  0  0  0  0  0  0  0  0  0  0
  -35.9858   63.7562   64.4317 O   0  0  0  0  0  0  0  0  0  0  0  0
  -34.8734   64.5634   63.9587 C   0  0  0  0  0  0  0  0  0  0  0  0
  -34.1994   63.8887   62.7898 C   0  0  0  0  0  0  0  0  0  0  0  0
  -33.0060   63.0086   63.1120 N   0  0  0  0  0  0  0  0  0  0  0  0
  -32.2534   63.5547   64.2828 C   0  0  0  0  0  0  0  0  0  0  0  0
  -32.1009   62.9781   61.9244 C   0  0  0  0  0  0  0  0  0  0  0  0
  -33.4537   61.6110   63.4326 C   0  0  0  0  0  0  0  0  0  0  0  0
 34 33  1  0  0  0
 34 35  1  0  0  0
 34 36  1  0  0  0
 34 37  1  0  0  0
 22 23  1  0  0  0
 22 25  1  0  0  0
 22 21  1  0  0  0
 23 24  1  0  0  0
 27 26  1  0  0  0
 27 28  2  0  0  0
 27 31  1  0  0  0
 27 29  1  0  0  0
 25 26  1  0  0  0
 32 33  1  0  0  0
 32 31  1  0  0  0
 29 30  1  0  0  0
 20 21  1  0  0  0
 20  2  1  0  0  0
  1  2  2  0  0  0
  2  3  1  0  0  0
  3  4  1  0  0  0
  4  5  1  0  0  0
  5  6  1  0  0  0
  6  7  1  0  0  0
  7  8  1  0  0  0
  8  9  1  0  0  0
  9 10  1  0  0  0
 10 11  2  0  0  0
 11 12  1  0  0  0
 12 13  1  0  0  0
 13 14  1  0  0  0
 14 15  1  0  0  0
 15 16  1  0  0  0
 16 17  1  0  0  0
 17 18  1  0  0  0
 18 19  1  0  0  0
M  CHG 1  28  -1
M  END
> <minimizedAffinity>
-7.95500

> <CNNscore>
0.7505076528

> <CNNaffinity>
6.3675007820

> <CNN_VS>
4.7788581848

> <CNNaffinity_variance>
0.3342058957

$$$$
/media/chris/experiments/cd1a-new-docking/inputs/ligands/4x6e_ligand.pdb


 37 36  0  0  0  0  0  0  0  0999 V2000
  -42.1311   57.4645   62.9448 O   0  0  0  0  0  0  0  0  0  0  0  0
  -42.3479   58.3417   63.7437 C   0  0  0  0  0  0  0  0  0  0  0  0
  -43.4306   59.3704   63.6286 C   0  0  0  0  0  0  0  0  0  0  0  0
  -44.8241   58.8042   63.8741 C   0  0  0  0  0  0  0  0  0  0  0  0
  -44.9332   57.9252   65.1082 C   0  0  0  0  0  0  0  0  0  0  0  0
  -46.0550   58.3363   66.0457 C   0  0  0  0  0  0  0  0  0  0  0  0
  -47.1086   57.2556   66.2177 C   0  0  0  0  0  0  0  0  0  0  0  0
  -48.4692   57.7003   65.7293 C   0  0  0  0  0  0  0  0  0  0  0  0
  -48.7591   59.1759   65.9147 C   0  0  0  0  0  0  0  0  0  0  0  0
  -50.1402   59.5693   65.5542 C   0  0  0  0  0  0  0  0  0  0  0  0
  -50.5416   59.9992   64.3757 C   0  0  0  0  0  0  0  0  0  0  0  0
  -49.7160   60.1473   63.1392 C   0  0  0  0  0  0  0  0  0  0  0  0
  -50.4590   59.5631   61.9367 C   0  0  0  0  0  0  0  0  0  0  0  0
  -50.9194   58.1211   62.0924 C   0  0  0  0  0  0  0  0  0  0  0  0
  -50.6980   57.2386   60.8698 C   0  0  0  0  0  0  0  0  0  0  0  0
  -50.3452   58.0214   59.6093 C   0  0  0  0  0  0  0  0  0  0  0  0
  -48.9995   57.6439   59.0107 C   0  0  0  0  0  0  0  0  0  0  0  0
  -48.3888   56.3554   59.5411 C   0  0  0  0  0  0  0  0  0  0  0  0
  -47.2691   55.8492   58.6846 C   0  0  0  0  0  0  0  0  0  0  0  0
  -41.6526   58.5200   64.8708 O   0  0  0  0  0  0  0  0  0  0  0  0
  -40.2270   58.7239   64.7583 C   0  0  0  0  0  0  0  0  0  0  0  0
  -39.8246   60.1154   65.1988 C   0  0  0  0  0  0  0  0  0  0  0  0
  -40.8699   60.7384   65.9574 O   0  0  0  0  0  0  0  0  0  0  0  0
  -41.0260   60.2317   66.7698 H   0  0  0  0  0  0  0  0  0  0  0  0
  -38.5465   60.1221   66.0043 C   0  0  0  0  0  0  0  0  0  0  0  0
  -38.0488   61.4661   66.2127 O   0  0  0  0  0  0  0  0  0  0  0  0
  -36.8121   62.2703   65.5802 P   0  0  0  0  0  0  0  0  0  0  0  0
  -36.5203   63.4758   66.4723 O   0  0  0  0  0  0  0  0  0  0  0  0
  -37.2015   62.7602   64.2397 O   0  0  0  0  0  0  0  0  0  0  0  0
  -37.9976   63.3092   64.3147 H   0  0  0  0  0  0  0  0  0  0  0  0
  -35.4633   61.3329   65.4979 O   0  0  0  0  0  0  0  0  0  0  0  0
  -34.8025   60.8943   64.2798 C   0  0  0  0  0  0  0  0  0  0  0  0
  -34.3600   59.4584   64.4145 C   0  0  0  0  0  0  0  0  0  0  0  0
  -35.2442   58.4131   63.7600 N   0  0  0  0  0  0  0  0  0  0  0  0
  -36.3465   59.0671   62.9902 C   0  0  0  0  0  0  0  0  0  0  0  0
  -35.8402   57.5557   64.8279 C   0  0  0  0  0  0  0  0  0  0  0  0
  -34.4413   57.5557   62.8237 C   0  0  0  0  0  0  0  0  0  0  0  0
 34 33  1  0  0  0
 34 35  1  0  0  0
 34 36  1  0  0  0
 34 37  1  0  0  0
 22 23  1  0  0  0
 22 25  1  0  0  0
 22 21  1  0  0  0
 23 24  1  0  0  0
 27 26  1  0  0  0
 27 28  2  0  0  0
 27 31  1  0  0  0
 27 29  1  0  0  0
 25 26  1  0  0  0
 32 33  1  0  0  0
 32 31  1  0  0  0
 29 30  1  0  0  0
 20 21  1  0  0  0
 20  2  1  0  0  0
  1  2  2  0  0  0
  2  3  1  0  0  0
  3  4  1  0  0  0
  4  5  1  0  0  0
  5  6  1  0  0  0
  6  7  1  0  0  0
  7  8  1  0  0  0
  8  9  1  0  0  0
  9 10  1  0  0  0
 10 11  2  0  0  0
 11 12  1  0  0  0
 12 13  1  0  0  0
 13 14  1  0  0  0
 14 15  1  0  0  0
 15 16  1  0  0  0
 16 17  1  0  0  0
 17 18  1  0  0  0
 18 19  1  0  0  0
M  CHG 1  28  -1
M  END
> <minimizedAffinity>
-7.72953

> <CNNscore>
0.7157492638

> <CNNaffinity>
6.8165855408

> <CNN_VS>
4.8789658546

> <CNNaffinity_variance>
0.4050957263

$$$$
/media/chris/experiments/cd1a-new-docking/inputs/ligands/4x6e_ligand.pdb


 37 36  0  0  0  0  0  0  0  0999 V2000
  -41.8238   55.2792   64.7237 O   0  0  0  0  0  0  0  0  0  0  0  0
  -42.2876   56.3920   64.6863 C   0  0  0  0  0  0  0  0  0  0  0  0
  -43.1872   56.9913   65.7232 C   0  0  0  0  0  0  0  0  0  0  0  0
  -44.4220   57.6602   65.1313 C   0  0  0  0  0  0  0  0  0  0  0  0
  -45.1558   58.5799   66.0921 C   0  0  0  0  0  0  0  0  0  0  0  0
  -46.4195   59.1835   65.5047 C   0  0  0  0  0  0  0  0  0  0  0  0
  -47.6466   58.3148   65.7213 C   0  0  0  0  0  0  0  0  0  0  0  0
  -48.8986   59.1362   65.9345 C   0  0  0  0  0  0  0  0  0  0  0  0
  -50.0966   58.6901   65.1211 C   0  0  0  0  0  0  0  0  0  0  0  0
  -50.9090   59.8047   64.5827 C   0  0  0  0  0  0  0  0  0  0  0  0
  -51.0286   60.1346   63.3132 C   0  0  0  0  0  0  0  0  0  0  0  0
  -50.4137   59.4448   62.1391 C   0  0  0  0  0  0  0  0  0  0  0  0
  -51.0332   58.0580   61.9591 C   0  0  0  0  0  0  0  0  0  0  0  0
  -50.5568   57.2845   60.7383 C   0  0  0  0  0  0  0  0  0  0  0  0
  -50.1770   58.1444   59.5387 C   0  0  0  0  0  0  0  0  0  0  0  0
  -49.0731   57.5372   58.6791 C   0  0  0  0  0  0  0  0  0  0  0  0
  -48.4912   56.2526   59.2474 C   0  0  0  0  0  0  0  0  0  0  0  0
  -47.1112   55.8771   58.7287 C   0  0  0  0  0  0  0  0  0  0  0  0
  -47.0532   55.8072   57.2337 C   0  0  0  0  0  0  0  0  0  0  0  0
  -42.0539   57.2706   63.7069 O   0  0  0  0  0  0  0  0  0  0  0  0
  -40.7266   57.8319   63.6073 C   0  0  0  0  0  0  0  0  0  0  0  0
  -40.5912   59.0967   64.4284 C   0  0  0  0  0  0  0  0  0  0  0  0
  -39.7696   58.8764   65.5828 O   0  0  0  0  0  0  0  0  0  0  0  0
  -38.8722   58.6394   65.3006 H   0  0  0  0  0  0  0  0  0  0  0  0
  -40.0349   60.2511   63.6283 C   0  0  0  0  0  0  0  0  0  0  0  0
  -38.5902   60.3146   63.7082 O   0  0  0  0  0  0  0  0  0  0  0  0
  -37.5923   61.3461   64.4267 P   0  0  0  0  0  0  0  0  0  0  0  0
  -38.0251   61.4921   65.8846 O   0  0  0  0  0  0  0  0  0  0  0  0
  -37.7157   62.6634   63.7651 O   0  0  0  0  0  0  0  0  0  0  0  0
  -38.6389   62.9587   63.8019 H   0  0  0  0  0  0  0  0  0  0  0  0
  -36.0388   60.8078   64.3864 O   0  0  0  0  0  0  0  0  0  0  0  0
  -34.9913   61.1540   65.3329 C   0  0  0  0  0  0  0  0  0  0  0  0
  -34.0155   62.1161   64.7020 C   0  0  0  0  0  0  0  0  0  0  0  0
  -33.9450   63.5048   65.3097 N   0  0  0  0  0  0  0  0  0  0  0  0
  -34.4817   64.5223   64.3548 C   0  0  0  0  0  0  0  0  0  0  0  0
  -32.5165   63.8238   65.6068 C   0  0  0  0  0  0  0  0  0  0  0  0
  -34.7430   63.5644   66.5809 C   0  0  0  0  0  0  0  0  0  0  0  0
 34 33  1  0  0  0
 34 35  1  0  0  0
 34 36  1  0  0  0
 34 37  1  0  0  0
 22 23  1  0  0  0
 22 25  1  0  0  0
 22 21  1  0  0  0
 23 24  1  0  0  0
 27 26  1  0  0  0
 27 28  2  0  0  0
 27 31  1  0  0  0
 27 29  1  0  0  0
 25 26  1  0  0  0
 32 33  1  0  0  0
 32 31  1  0  0  0
 29 30  1  0  0  0
 20 21  1  0  0  0
 20  2  1  0  0  0
  1  2  2  0  0  0
  2  3  1  0  0  0
  3  4  1  0  0  0
  4  5  1  0  0  0
  5  6  1  0  0  0
  6  7  1  0  0  0
  7  8  1  0  0  0
  8  9  1  0  0  0
  9 10  1  0  0  0
 10 11  2  0  0  0
 11 12  1  0  0  0
 12 13  1  0  0  0
 13 14  1  0  0  0
 14 15  1  0  0  0
 15 16  1  0  0  0
 16 17  1  0  0  0
 17 18  1  0  0  0
 18 19  1  0  0  0
M  CHG 1  28  -1
M  END
> <minimizedAffinity>
-8.13972

> <CNNscore>
0.7117385268

> <CNNaffinity>
6.5012655258

> <CNN_VS>
4.6272010803

> <CNNaffinity_variance>
0.3076283038

$$$$
/media/chris/experiments/cd1a-new-docking/inputs/ligands/4x6e_ligand.pdb


 37 36  0  0  0  0  0  0  0  0999 V2000
  -41.7248   60.9380   59.7271 O   0  0  0  0  0  0  0  0  0  0  0  0
  -41.7332   60.2058   60.6854 C   0  0  0  0  0  0  0  0  0  0  0  0
  -42.7676   60.2080   61.7687 C   0  0  0  0  0  0  0  0  0  0  0  0
  -43.3561   61.5888   62.0328 C   0  0  0  0  0  0  0  0  0  0  0  0
  -44.4883   61.6025   63.0454 C   0  0  0  0  0  0  0  0  0  0  0  0
  -44.7160   60.2590   63.7157 C   0  0  0  0  0  0  0  0  0  0  0  0
  -45.8021   60.3032   64.7767 C   0  0  0  0  0  0  0  0  0  0  0  0
  -47.0850   59.6524   64.3095 C   0  0  0  0  0  0  0  0  0  0  0  0
  -48.1684   59.5555   65.3645 C   0  0  0  0  0  0  0  0  0  0  0  0
  -49.2066   58.5414   65.0715 C   0  0  0  0  0  0  0  0  0  0  0  0
  -50.2270   58.6903   64.2519 C   0  0  0  0  0  0  0  0  0  0  0  0
  -50.5430   59.8843   63.4112 C   0  0  0  0  0  0  0  0  0  0  0  0
  -50.6085   59.4870   61.9356 C   0  0  0  0  0  0  0  0  0  0  0  0
  -50.7815   57.9991   61.6680 C   0  0  0  0  0  0  0  0  0  0  0  0
  -50.3272   57.5354   60.2892 C   0  0  0  0  0  0  0  0  0  0  0  0
  -49.3532   56.3625   60.3313 C   0  0  0  0  0  0  0  0  0  0  0  0
  -48.2118   56.4782   59.3335 C   0  0  0  0  0  0  0  0  0  0  0  0
  -48.5514   57.1954   58.0355 C   0  0  0  0  0  0  0  0  0  0  0  0
  -47.4224   57.1785   57.0514 C   0  0  0  0  0  0  0  0  0  0  0  0
  -40.8150   59.2633   60.9188 O   0  0  0  0  0  0  0  0  0  0  0  0
  -39.4241   59.6493   60.8656 C   0  0  0  0  0  0  0  0  0  0  0  0
  -38.5199   58.4544   60.6495 C   0  0  0  0  0  0  0  0  0  0  0  0
  -37.8052   58.5659   59.4114 O   0  0  0  0  0  0  0  0  0  0  0  0
  -37.2248   59.3426   59.4419 H   0  0  0  0  0  0  0  0  0  0  0  0
  -37.5381   58.2576   61.7808 C   0  0  0  0  0  0  0  0  0  0  0  0
  -37.2128   59.5082   62.4347 O   0  0  0  0  0  0  0  0  0  0  0  0
  -37.1088   59.9233   63.9817 P   0  0  0  0  0  0  0  0  0  0  0  0
  -37.6571   58.7718   64.8228 O   0  0  0  0  0  0  0  0  0  0  0  0
  -37.9531   61.1164   64.2098 O   0  0  0  0  0  0  0  0  0  0  0  0
  -38.8650   60.9234   63.9413 H   0  0  0  0  0  0  0  0  0  0  0  0
  -35.5509   60.2084   64.4249 O   0  0  0  0  0  0  0  0  0  0  0  0
  -35.1100   61.1715   65.4204 C   0  0  0  0  0  0  0  0  0  0  0  0
  -34.3639   62.3026   64.7572 C   0  0  0  0  0  0  0  0  0  0  0  0
  -34.7666   63.7086   65.1620 N   0  0  0  0  0  0  0  0  0  0  0  0
  -34.0261   64.1325   66.3897 C   0  0  0  0  0  0  0  0  0  0  0  0
  -36.2320   63.7211   65.4502 C   0  0  0  0  0  0  0  0  0  0  0  0
  -34.4686   64.6806   64.0562 C   0  0  0  0  0  0  0  0  0  0  0  0
 34 33  1  0  0  0
 34 35  1  0  0  0
 34 36  1  0  0  0
 34 37  1  0  0  0
 22 23  1  0  0  0
 22 25  1  0  0  0
 22 21  1  0  0  0
 23 24  1  0  0  0
 27 26  1  0  0  0
 27 28  2  0  0  0
 27 31  1  0  0  0
 27 29  1  0  0  0
 25 26  1  0  0  0
 32 33  1  0  0  0
 32 31  1  0  0  0
 29 30  1  0  0  0
 20 21  1  0  0  0
 20  2  1  0  0  0
  1  2  2  0  0  0
  2  3  1  0  0  0
  3  4  1  0  0  0
  4  5  1  0  0  0
  5  6  1  0  0  0
  6  7  1  0  0  0
  7  8  1  0  0  0
  8  9  1  0  0  0
  9 10  1  0  0  0
 10 11  2  0  0  0
 11 12  1  0  0  0
 12 13  1  0  0  0
 13 14  1  0  0  0
 14 15  1  0  0  0
 15 16  1  0  0  0
 16 17  1  0  0  0
 17 18  1  0  0  0
 18 19  1  0  0  0
M  CHG 1  28  -1
M  END
> <minimizedAffinity>
-8.04022

> <CNNscore>
0.6971169114

> <CNNaffinity>
6.4995560646

> <CNN_VS>
4.5309505463

> <CNNaffinity_variance>
0.4381999075

$$$$
/media/chris/experiments/cd1a-new-docking/inputs/ligands/4x6e_ligand.pdb


 37 36  0  0  0  0  0  0  0  0999 V2000
  -41.8358   57.7685   63.3471 O   0  0  0  0  0  0  0  0  0  0  0  0
  -41.9633   58.8907   62.9241 C   0  0  0  0  0  0  0  0  0  0  0  0
  -43.2603   59.6310   62.8081 C   0  0  0  0  0  0  0  0  0  0  0  0
  -43.8633   59.9992   64.1584 C   0  0  0  0  0  0  0  0  0  0  0  0
  -45.3646   60.2286   64.1309 C   0  0  0  0  0  0  0  0  0  0  0  0
  -46.0702   59.7646   65.3930 C   0  0  0  0  0  0  0  0  0  0  0  0
  -46.3126   58.2653   65.4186 C   0  0  0  0  0  0  0  0  0  0  0  0
  -47.7786   57.9253   65.5697 C   0  0  0  0  0  0  0  0  0  0  0  0
  -48.6578   59.0829   65.9975 C   0  0  0  0  0  0  0  0  0  0  0  0
  -50.0751   58.9460   65.5917 C   0  0  0  0  0  0  0  0  0  0  0  0
  -50.6034   59.3722   64.4629 C   0  0  0  0  0  0  0  0  0  0  0  0
  -49.8956   60.0450   63.3320 C   0  0  0  0  0  0  0  0  0  0  0  0
  -50.4145   59.5133   61.9950 C   0  0  0  0  0  0  0  0  0  0  0  0
  -50.3891   57.9996   61.8413 C   0  0  0  0  0  0  0  0  0  0  0  0
  -50.3567   57.4987   60.4023 C   0  0  0  0  0  0  0  0  0  0  0  0
  -49.4654   56.2774   60.2024 C   0  0  0  0  0  0  0  0  0  0  0  0
  -48.2277   56.5535   59.3635 C   0  0  0  0  0  0  0  0  0  0  0  0
  -48.4849   57.2320   58.0264 C   0  0  0  0  0  0  0  0  0  0  0  0
  -47.4294   56.9260   57.0086 C   0  0  0  0  0  0  0  0  0  0  0  0
  -40.9508   59.6541   62.5024 O   0  0  0  0  0  0  0  0  0  0  0  0
  -40.5294   59.5158   61.1276 C   0  0  0  0  0  0  0  0  0  0  0  0
  -39.0710   59.1223   61.0266 C   0  0  0  0  0  0  0  0  0  0  0  0
  -38.3163   60.1169   60.3214 O   0  0  0  0  0  0  0  0  0  0  0  0
  -38.3380   60.9508   60.8167 H   0  0  0  0  0  0  0  0  0  0  0  0
  -38.4411   58.8776   62.3779 C   0  0  0  0  0  0  0  0  0  0  0  0
  -37.5315   59.9420   62.7483 O   0  0  0  0  0  0  0  0  0  0  0  0
  -37.5954   61.0697   63.8886 P   0  0  0  0  0  0  0  0  0  0  0  0
  -37.0251   60.4787   65.1769 O   0  0  0  0  0  0  0  0  0  0  0  0
  -39.0116   61.4278   64.1219 O   0  0  0  0  0  0  0  0  0  0  0  0
  -39.5110   60.6320   64.3632 H   0  0  0  0  0  0  0  0  0  0  0  0
  -36.7113   62.3936   63.4760 O   0  0  0  0  0  0  0  0  0  0  0  0
  -36.4438   63.5402   64.3286 C   0  0  0  0  0  0  0  0  0  0  0  0
  -34.9681   63.6347   64.6276 C   0  0  0  0  0  0  0  0  0  0  0  0
  -34.5828   63.8200   66.0836 N   0  0  0  0  0  0  0  0  0  0  0  0
  -33.6932   65.0110   66.2425 C   0  0  0  0  0  0  0  0  0  0  0  0
  -33.8500   62.6020   66.5421 C   0  0  0  0  0  0  0  0  0  0  0  0
  -35.8074   64.0128   66.9319 C   0  0  0  0  0  0  0  0  0  0  0  0
 34 33  1  0  0  0
 34 35  1  0  0  0
 34 36  1  0  0  0
 34 37  1  0  0  0
 22 23  1  0  0  0
 22 25  1  0  0  0
 22 21  1  0  0  0
 23 24  1  0  0  0
 27 26  1  0  0  0
 27 28  2  0  0  0
 27 31  1  0  0  0
 27 29  1  0  0  0
 25 26  1  0  0  0
 32 33  1  0  0  0
 32 31  1  0  0  0
 29 30  1  0  0  0
 20 21  1  0  0  0
 20  2  1  0  0  0
  1  2  2  0  0  0
  2  3  1  0  0  0
  3  4  1  0  0  0
  4  5  1  0  0  0
  5  6  1  0  0  0
  6  7  1  0  0  0
  7  8  1  0  0  0
  8  9  1  0  0  0
  9 10  1  0  0  0
 10 11  2  0  0  0
 11 12  1  0  0  0
 12 13  1  0  0  0
 13 14  1  0  0  0
 14 15  1  0  0  0
 15 16  1  0  0  0
 16 17  1  0  0  0
 17 18  1  0  0  0
 18 19  1  0  0  0
M  CHG 1  28  -1
M  END
> <minimizedAffinity>
-7.89355

> <CNNscore>
0.6768658161

> <CNNaffinity>
6.5633330345

> <CNN_VS>
4.4424958229

> <CNNaffinity_variance>
0.4114579558

$$$$
/media/chris/experiments/cd1a-new-docking/inputs/ligands/4x6e_ligand.pdb


 37 36  0  0  0  0  0  0  0  0999 V2000
  -42.0922   55.6772   64.9821 O   0  0  0  0  0  0  0  0  0  0  0  0
  -42.4685   56.8007   65.2075 C   0  0  0  0  0  0  0  0  0  0  0  0
  -43.5137   57.1794   66.2114 C   0  0  0  0  0  0  0  0  0  0  0  0
  -44.8226   57.6293   65.5734 C   0  0  0  0  0  0  0  0  0  0  0  0
  -45.0256   59.1347   65.5581 C   0  0  0  0  0  0  0  0  0  0  0  0
  -46.4858   59.5470   65.4952 C   0  0  0  0  0  0  0  0  0  0  0  0
  -47.3324   58.8942   66.5743 C   0  0  0  0  0  0  0  0  0  0  0  0
  -48.2662   57.8453   66.0126 C   0  0  0  0  0  0  0  0  0  0  0  0
  -48.9368   58.2257   64.7082 C   0  0  0  0  0  0  0  0  0  0  0  0
  -50.0970   59.1316   64.8681 C   0  0  0  0  0  0  0  0  0  0  0  0
  -50.9764   59.4376   63.9365 C   0  0  0  0  0  0  0  0  0  0  0  0
  -51.0277   58.9166   62.5371 C   0  0  0  0  0  0  0  0  0  0  0  0
  -50.3179   59.8839   61.5885 C   0  0  0  0  0  0  0  0  0  0  0  0
  -49.5955   59.2354   60.4166 C   0  0  0  0  0  0  0  0  0  0  0  0
  -50.2897   58.0126   59.8288 C   0  0  0  0  0  0  0  0  0  0  0  0
  -49.4329   57.2504   58.8234 C   0  0  0  0  0  0  0  0  0  0  0  0
  -48.3235   56.4299   59.4620 C   0  0  0  0  0  0  0  0  0  0  0  0
  -47.2506   55.9296   58.5065 C   0  0  0  0  0  0  0  0  0  0  0  0
  -47.3185   56.5879   57.1628 C   0  0  0  0  0  0  0  0  0  0  0  0
  -41.9932   57.8892   64.5953 O   0  0  0  0  0  0  0  0  0  0  0  0
  -41.3073   57.7095   63.3368 C   0  0  0  0  0  0  0  0  0  0  0  0
  -39.9489   58.3780   63.3397 C   0  0  0  0  0  0  0  0  0  0  0  0
  -40.0521   59.7534   63.7321 O   0  0  0  0  0  0  0  0  0  0  0  0
  -40.3817   59.8059   64.6429 H   0  0  0  0  0  0  0  0  0  0  0  0
  -38.9571   57.6729   64.2350 C   0  0  0  0  0  0  0  0  0  0  0  0
  -37.6763   57.4939   63.5832 O   0  0  0  0  0  0  0  0  0  0  0  0
  -36.8300   58.4276   62.5892 P   0  0  0  0  0  0  0  0  0  0  0  0
  -37.3523   58.2106   61.1699 O   0  0  0  0  0  0  0  0  0  0  0  0
  -35.4121   58.0088   62.6380 O   0  0  0  0  0  0  0  0  0  0  0  0
  -35.3442   57.0692   62.4070 H   0  0  0  0  0  0  0  0  0  0  0  0
  -36.9899   60.0183   62.9754 O   0  0  0  0  0  0  0  0  0  0  0  0
  -36.4482   60.6675   64.1578 C   0  0  0  0  0  0  0  0  0  0  0  0
  -37.1096   62.0072   64.3663 C   0  0  0  0  0  0  0  0  0  0  0  0
  -36.1900   63.2120   64.4412 N   0  0  0  0  0  0  0  0  0  0  0  0
  -34.7792   62.8131   64.1482 C   0  0  0  0  0  0  0  0  0  0  0  0
  -36.2575   63.7790   65.8213 C   0  0  0  0  0  0  0  0  0  0  0  0
  -36.6132   64.2598   63.4515 C   0  0  0  0  0  0  0  0  0  0  0  0
 34 33  1  0  0  0
 34 35  1  0  0  0
 34 36  1  0  0  0
 34 37  1  0  0  0
 22 23  1  0  0  0
 22 25  1  0  0  0
 22 21  1  0  0  0
 23 24  1  0  0  0
 27 26  1  0  0  0
 27 28  2  0  0  0
 27 31  1  0  0  0
 27 29  1  0  0  0
 25 26  1  0  0  0
 32 33  1  0  0  0
 32 31  1  0  0  0
 29 30  1  0  0  0
 20 21  1  0  0  0
 20  2  1  0  0  0
  1  2  2  0  0  0
  2  3  1  0  0  0
  3  4  1  0  0  0
  4  5  1  0  0  0
  5  6  1  0  0  0
  6  7  1  0  0  0
  7  8  1  0  0  0
  8  9  1  0  0  0
  9 10  1  0  0  0
 10 11  2  0  0  0
 11 12  1  0  0  0
 12 13  1  0  0  0
 13 14  1  0  0  0
 14 15  1  0  0  0
 15 16  1  0  0  0
 16 17  1  0  0  0
 17 18  1  0  0  0
 18 19  1  0  0  0
M  CHG 1  28  -1
M  END
> <minimizedAffinity>
-7.68415

> <CNNscore>
0.6756607890

> <CNNaffinity>
6.7443299294

> <CNN_VS>
4.5568790436

> <CNNaffinity_variance>
0.4036371112

$$$$
