/media/chris/experiments/cd1a-new-docking/inputs/ligands/4x6e_ligand.pdb


 37 36  0  0  0  0  0  0  0  0999 V2000
  -41.4058   56.5400   64.0375 O   0  0  0  0  0  0  0  0  0  0  0  0
  -42.4367   57.1648   64.0760 C   0  0  0  0  0  0  0  0  0  0  0  0
  -43.4132   57.1563   65.2118 C   0  0  0  0  0  0  0  0  0  0  0  0
  -43.2322   58.3301   66.1668 C   0  0  0  0  0  0  0  0  0  0  0  0
  -44.4283   59.2633   66.2440 C   0  0  0  0  0  0  0  0  0  0  0  0
  -44.7787   59.9078   64.9144 C   0  0  0  0  0  0  0  0  0  0  0  0
  -46.2654   60.1807   64.7623 C   0  0  0  0  0  0  0  0  0  0  0  0
  -47.0288   59.9196   66.0416 C   0  0  0  0  0  0  0  0  0  0  0  0
  -48.5253   60.1351   65.9430 C   0  0  0  0  0  0  0  0  0  0  0  0
  -49.3143   58.8827   65.9088 C   0  0  0  0  0  0  0  0  0  0  0  0
  -49.8075   58.3057   64.8324 C   0  0  0  0  0  0  0  0  0  0  0  0
  -49.6514   58.7539   63.4157 C   0  0  0  0  0  0  0  0  0  0  0  0
  -50.9736   58.5932   62.6637 C   0  0  0  0  0  0  0  0  0  0  0  0
  -50.8734   57.9112   61.3071 C   0  0  0  0  0  0  0  0  0  0  0  0
  -49.7260   58.3926   60.4274 C   0  0  0  0  0  0  0  0  0  0  0  0
  -49.4414   57.4763   59.2418 C   0  0  0  0  0  0  0  0  0  0  0  0
  -48.7153   56.1947   59.6188 C   0  0  0  0  0  0  0  0  0  0  0  0
  -47.3923   55.9614   58.9048 C   0  0  0  0  0  0  0  0  0  0  0  0
  -47.5621   55.7066   57.4384 C   0  0  0  0  0  0  0  0  0  0  0  0
  -42.8595   57.9774   63.1031 O   0  0  0  0  0  0  0  0  0  0  0  0
  -42.0482   58.0827   61.9126 C   0  0  0  0  0  0  0  0  0  0  0  0
  -41.1499   59.3008   61.9540 C   0  0  0  0  0  0  0  0  0  0  0  0
  -40.8957   59.7988   60.6334 O   0  0  0  0  0  0  0  0  0  0  0  0
  -41.7291   60.0905   60.2319 H   0  0  0  0  0  0  0  0  0  0  0  0
  -41.7158   60.4101   62.8093 C   0  0  0  0  0  0  0  0  0  0  0  0
  -41.1162   60.4327   64.1274 O   0  0  0  0  0  0  0  0  0  0  0  0
  -39.5990   60.2764   64.6267 P   0  0  0  0  0  0  0  0  0  0  0  0
  -39.4600   60.9994   65.9655 O   0  0  0  0  0  0  0  0  0  0  0  0
  -38.7071   60.9302   63.6441 O   0  0  0  0  0  0  0  0  0  0  0  0
  -38.9662   61.8591   63.5402 H   0  0  0  0  0  0  0  0  0  0  0  0
  -39.1929   58.6960   64.8332 O   0  0  0  0  0  0  0  0  0  0  0  0
  -38.0750   58.0134   64.2028 C   0  0  0  0  0  0  0  0  0  0  0  0
  -36.8299   58.1687   65.0403 C   0  0  0  0  0  0  0  0  0  0  0  0
  -35.6318   58.8055   64.3606 N   0  0  0  0  0  0  0  0  0  0  0  0
  -35.5862   60.2723   64.6458 C   0  0  0  0  0  0  0  0  0  0  0  0
  -35.7552   58.6012   62.8863 C   0  0  0  0  0  0  0  0  0  0  0  0
  -34.3562   58.1774   64.8450 C   0  0  0  0  0  0  0  0  0  0  0  0
 34 33  1  0  0  0
 34 35  1  0  0  0
 34 36  1  0  0  0
 34 37  1  0  0  0
 22 23  1  0  0  0
 22 25  1  0  0  0
 22 21  1  0  0  0
 23 24  1  0  0  0
 27 26  1  0  0  0
 27 28  2  0  0  0
 27 31  1  0  0  0
 27 29  1  0  0  0
 25 26  1  0  0  0
 32 33  1  0  0  0
 32 31  1  0  0  0
 29 30  1  0  0  0
 20 21  1  0  0  0
 20  2  1  0  0  0
  1  2  2  0  0  0
  2  3  1  0  0  0
  3  4  1  0  0  0
  4  5  1  0  0  0
  5  6  1  0  0  0
  6  7  1  0  0  0
  7  8  1  0  0  0
  8  9  1  0  0  0
  9 10  1  0  0  0
 10 11  2  0  0  0
 11 12  1  0  0  0
 12 13  1  0  0  0
 13 14  1  0  0  0
 14 15  1  0  0  0
 15 16  1  0  0  0
 16 17  1  0  0  0
 17 18  1  0  0  0
 18 19  1  0  0  0
M  CHG 1  28  -1
M  END
> <minimizedAffinity>
-7.51230

> <CNNscore>
0.9038178325

> <CNNaffinity>
7.2071924210

> <CNN_VS>
6.5139889717

> <CNNaffinity_variance>
0.2766302526

$$$$
/media/chris/experiments/cd1a-new-docking/inputs/ligands/4x6e_ligand.pdb


 37 36  0  0  0  0  0  0  0  0999 V2000
  -41.4310   60.9489   64.7219 O   0  0  0  0  0  0  0  0  0  0  0  0
  -41.0694   60.5151   65.7877 C   0  0  0  0  0  0  0  0  0  0  0  0
  -41.8708   59.6096   66.6717 C   0  0  0  0  0  0  0  0  0  0  0  0
  -42.9855   58.8810   65.9306 C   0  0  0  0  0  0  0  0  0  0  0  0
  -44.3771   59.4256   66.2029 C   0  0  0  0  0  0  0  0  0  0  0  0
  -45.4681   58.7132   65.4231 C   0  0  0  0  0  0  0  0  0  0  0  0
  -45.9169   57.4191   66.0800 C   0  0  0  0  0  0  0  0  0  0  0  0
  -47.4199   57.3460   66.2321 C   0  0  0  0  0  0  0  0  0  0  0  0
  -48.2018   58.1222   65.1919 C   0  0  0  0  0  0  0  0  0  0  0  0
  -49.6255   58.3323   65.5401 C   0  0  0  0  0  0  0  0  0  0  0  0
  -50.4756   59.1052   64.8961 C   0  0  0  0  0  0  0  0  0  0  0  0
  -50.2132   59.9033   63.6606 C   0  0  0  0  0  0  0  0  0  0  0  0
  -51.0783   59.3900   62.5084 C   0  0  0  0  0  0  0  0  0  0  0  0
  -50.8646   57.9311   62.1324 C   0  0  0  0  0  0  0  0  0  0  0  0
  -50.8440   57.6482   60.6352 C   0  0  0  0  0  0  0  0  0  0  0  0
  -49.7183   58.3636   59.8954 C   0  0  0  0  0  0  0  0  0  0  0  0
  -49.0736   57.5252   58.8030 C   0  0  0  0  0  0  0  0  0  0  0  0
  -48.1754   56.3985   59.2911 C   0  0  0  0  0  0  0  0  0  0  0  0
  -47.3837   55.7684   58.1866 C   0  0  0  0  0  0  0  0  0  0  0  0
  -39.8795   60.7721   66.3388 O   0  0  0  0  0  0  0  0  0  0  0  0
  -38.7503   59.9838   65.9027 C   0  0  0  0  0  0  0  0  0  0  0  0
  -37.7621   60.8130   65.1101 C   0  0  0  0  0  0  0  0  0  0  0  0
  -37.7433   62.1712   65.5701 O   0  0  0  0  0  0  0  0  0  0  0  0
  -37.4405   62.1963   66.4913 H   0  0  0  0  0  0  0  0  0  0  0  0
  -36.3620   60.2474   65.1557 C   0  0  0  0  0  0  0  0  0  0  0  0
  -35.9706   59.6760   63.8837 O   0  0  0  0  0  0  0  0  0  0  0  0
  -36.2266   58.2366   63.2217 P   0  0  0  0  0  0  0  0  0  0  0  0
  -36.9635   57.3673   64.2394 O   0  0  0  0  0  0  0  0  0  0  0  0
  -34.9187   57.6109   62.9279 O   0  0  0  0  0  0  0  0  0  0  0  0
  -34.3974   57.5530   63.7438 H   0  0  0  0  0  0  0  0  0  0  0  0
  -37.1441   58.3540   61.8617 O   0  0  0  0  0  0  0  0  0  0  0  0
  -38.3233   59.1881   61.6980 C   0  0  0  0  0  0  0  0  0  0  0  0
  -39.3756   58.4535   60.9050 C   0  0  0  0  0  0  0  0  0  0  0  0
  -40.6463   58.0824   61.6470 N   0  0  0  0  0  0  0  0  0  0  0  0
  -41.2018   56.7968   61.1239 C   0  0  0  0  0  0  0  0  0  0  0  0
  -41.6531   59.1660   61.4408 C   0  0  0  0  0  0  0  0  0  0  0  0
  -40.3727   57.9304   63.1162 C   0  0  0  0  0  0  0  0  0  0  0  0
 34 33  1  0  0  0
 34 35  1  0  0  0
 34 36  1  0  0  0
 34 37  1  0  0  0
 22 23  1  0  0  0
 22 25  1  0  0  0
 22 21  1  0  0  0
 23 24  1  0  0  0
 27 26  1  0  0  0
 27 28  2  0  0  0
 27 31  1  0  0  0
 27 29  1  0  0  0
 25 26  1  0  0  0
 32 33  1  0  0  0
 32 31  1  0  0  0
 29 30  1  0  0  0
 20 21  1  0  0  0
 20  2  1  0  0  0
  1  2  2  0  0  0
  2  3  1  0  0  0
  3  4  1  0  0  0
  4  5  1  0  0  0
  5  6  1  0  0  0
  6  7  1  0  0  0
  7  8  1  0  0  0
  8  9  1  0  0  0
  9 10  1  0  0  0
 10 11  2  0  0  0
 11 12  1  0  0  0
 12 13  1  0  0  0
 13 14  1  0  0  0
 14 15  1  0  0  0
 15 16  1  0  0  0
 16 17  1  0  0  0
 17 18  1  0  0  0
 18 19  1  0  0  0
M  CHG 1  28  -1
M  END
> <minimizedAffinity>
-7.97873

> <CNNscore>
0.8116414547

> <CNNaffinity>
7.2899999619

> <CNN_VS>
5.9168663025

> <CNNaffinity_variance>
0.3372380435

$$$$
/media/chris/experiments/cd1a-new-docking/inputs/ligands/4x6e_ligand.pdb


 37 36  0  0  0  0  0  0  0  0999 V2000
  -40.6807   60.9271   66.1557 O   0  0  0  0  0  0  0  0  0  0  0  0
  -40.4544   59.7461   66.0626 C   0  0  0  0  0  0  0  0  0  0  0  0
  -41.4887   58.6625   66.0697 C   0  0  0  0  0  0  0  0  0  0  0  0
  -42.9141   59.1937   65.9770 C   0  0  0  0  0  0  0  0  0  0  0  0
  -43.8980   58.2339   65.3304 C   0  0  0  0  0  0  0  0  0  0  0  0
  -45.2325   58.1598   66.0512 C   0  0  0  0  0  0  0  0  0  0  0  0
  -46.3358   58.9189   65.3341 C   0  0  0  0  0  0  0  0  0  0  0  0
  -47.2149   59.6912   66.2924 C   0  0  0  0  0  0  0  0  0  0  0  0
  -48.6092   59.9860   65.7777 C   0  0  0  0  0  0  0  0  0  0  0  0
  -49.4539   58.7828   65.6012 C   0  0  0  0  0  0  0  0  0  0  0  0
  -50.3411   58.5911   64.6468 C   0  0  0  0  0  0  0  0  0  0  0  0
  -50.6644   59.5126   63.5160 C   0  0  0  0  0  0  0  0  0  0  0  0
  -50.9243   58.7099   62.2402 C   0  0  0  0  0  0  0  0  0  0  0  0
  -49.6964   58.0645   61.6146 C   0  0  0  0  0  0  0  0  0  0  0  0
  -49.9875   56.8887   60.6900 C   0  0  0  0  0  0  0  0  0  0  0  0
  -48.8583   56.5911   59.7088 C   0  0  0  0  0  0  0  0  0  0  0  0
  -48.8973   57.4467   58.4525 C   0  0  0  0  0  0  0  0  0  0  0  0
  -47.7936   57.1713   57.4422 C   0  0  0  0  0  0  0  0  0  0  0  0
  -47.4998   55.7106   57.2885 C   0  0  0  0  0  0  0  0  0  0  0  0
  -39.2322   59.2237   65.9254 O   0  0  0  0  0  0  0  0  0  0  0  0
  -39.0707   58.1173   65.0107 C   0  0  0  0  0  0  0  0  0  0  0  0
  -37.6120   57.8578   64.6991 C   0  0  0  0  0  0  0  0  0  0  0  0
  -37.4633   57.2161   63.4253 O   0  0  0  0  0  0  0  0  0  0  0  0
  -37.7890   57.8050   62.7267 H   0  0  0  0  0  0  0  0  0  0  0  0
  -36.7795   59.1182   64.7271 C   0  0  0  0  0  0  0  0  0  0  0  0
  -37.0903   59.9933   63.6158 O   0  0  0  0  0  0  0  0  0  0  0  0
  -37.8862   61.3841   63.5259 P   0  0  0  0  0  0  0  0  0  0  0  0
  -37.0365   62.3696   62.7252 O   0  0  0  0  0  0  0  0  0  0  0  0
  -38.0625   61.9184   64.8941 O   0  0  0  0  0  0  0  0  0  0  0  0
  -37.1951   62.0177   65.3167 H   0  0  0  0  0  0  0  0  0  0  0  0
  -39.3364   61.2002   62.7721 O   0  0  0  0  0  0  0  0  0  0  0  0
  -39.6205   60.2812   61.6823 C   0  0  0  0  0  0  0  0  0  0  0  0
  -40.4127   59.1012   62.1883 C   0  0  0  0  0  0  0  0  0  0  0  0
  -40.5309   57.9132   61.2516 N   0  0  0  0  0  0  0  0  0  0  0  0
  -40.6660   56.6439   62.0299 C   0  0  0  0  0  0  0  0  0  0  0  0
  -39.2960   57.8405   60.4148 C   0  0  0  0  0  0  0  0  0  0  0  0
  -41.7291   58.0642   60.3583 C   0  0  0  0  0  0  0  0  0  0  0  0
 34 33  1  0  0  0
 34 35  1  0  0  0
 34 36  1  0  0  0
 34 37  1  0  0  0
 22 23  1  0  0  0
 22 25  1  0  0  0
 22 21  1  0  0  0
 23 24  1  0  0  0
 27 26  1  0  0  0
 27 28  2  0  0  0
 27 31  1  0  0  0
 27 29  1  0  0  0
 25 26  1  0  0  0
 32 33  1  0  0  0
 32 31  1  0  0  0
 29 30  1  0  0  0
 20 21  1  0  0  0
 20  2  1  0  0  0
  1  2  2  0  0  0
  2  3  1  0  0  0
  3  4  1  0  0  0
  4  5  1  0  0  0
  5  6  1  0  0  0
  6  7  1  0  0  0
  7  8  1  0  0  0
  8  9  1  0  0  0
  9 10  1  0  0  0
 10 11  2  0  0  0
 11 12  1  0  0  0
 12 13  1  0  0  0
 13 14  1  0  0  0
 14 15  1  0  0  0
 15 16  1  0  0  0
 16 17  1  0  0  0
 17 18  1  0  0  0
 18 19  1  0  0  0
M  CHG 1  28  -1
M  END
> <minimizedAffinity>
-7.75806

> <CNNscore>
0.7979857326

> <CNNaffinity>
7.2596521378

> <CNN_VS>
5.7930989265

> <CNNaffinity_variance>
0.1917322576

$$$$
/media/chris/experiments/cd1a-new-docking/inputs/ligands/4x6e_ligand.pdb


 37 36  0  0  0  0  0  0  0  0999 V2000
  -41.7140   58.3751   64.8993 O   0  0  0  0  0  0  0  0  0  0  0  0
  -42.6719   58.9410   64.4337 C   0  0  0  0  0  0  0  0  0  0  0  0
  -43.9773   58.2931   64.0870 C   0  0  0  0  0  0  0  0  0  0  0  0
  -44.7343   57.7801   65.3062 C   0  0  0  0  0  0  0  0  0  0  0  0
  -45.0986   58.8565   66.3142 C   0  0  0  0  0  0  0  0  0  0  0  0
  -46.4048   58.5871   67.0404 C   0  0  0  0  0  0  0  0  0  0  0  0
  -47.0163   57.2440   66.6805 C   0  0  0  0  0  0  0  0  0  0  0  0
  -48.3104   57.3922   65.9116 C   0  0  0  0  0  0  0  0  0  0  0  0
  -48.7672   58.8224   65.7073 C   0  0  0  0  0  0  0  0  0  0  0  0
  -50.2130   58.9585   65.4188 C   0  0  0  0  0  0  0  0  0  0  0  0
  -50.7413   59.5079   64.3447 C   0  0  0  0  0  0  0  0  0  0  0  0
  -50.0135   60.0745   63.1692 C   0  0  0  0  0  0  0  0  0  0  0  0
  -50.4074   59.3258   61.8950 C   0  0  0  0  0  0  0  0  0  0  0  0
  -49.5174   58.1467   61.5301 C   0  0  0  0  0  0  0  0  0  0  0  0
  -50.0774   57.2261   60.4526 C   0  0  0  0  0  0  0  0  0  0  0  0
  -49.2432   57.2044   59.1759 C   0  0  0  0  0  0  0  0  0  0  0  0
  -48.1066   56.1949   59.2043 C   0  0  0  0  0  0  0  0  0  0  0  0
  -47.4506   55.9146   57.8605 C   0  0  0  0  0  0  0  0  0  0  0  0
  -47.4321   57.1138   56.9631 C   0  0  0  0  0  0  0  0  0  0  0  0
  -42.7148   60.2495   64.1662 O   0  0  0  0  0  0  0  0  0  0  0  0
  -41.9292   60.7368   63.0562 C   0  0  0  0  0  0  0  0  0  0  0  0
  -42.7092   60.6973   61.7591 C   0  0  0  0  0  0  0  0  0  0  0  0
  -43.0887   62.0170   61.3456 O   0  0  0  0  0  0  0  0  0  0  0  0
  -42.2923   62.5413   61.1670 H   0  0  0  0  0  0  0  0  0  0  0  0
  -41.9468   60.0209   60.6440 C   0  0  0  0  0  0  0  0  0  0  0  0
  -41.9593   58.5792   60.7807 O   0  0  0  0  0  0  0  0  0  0  0  0
  -40.7833   57.4997   60.9473 P   0  0  0  0  0  0  0  0  0  0  0  0
  -39.9631   57.4845   59.6583 O   0  0  0  0  0  0  0  0  0  0  0  0
  -41.3898   56.1635   61.1348 O   0  0  0  0  0  0  0  0  0  0  0  0
  -41.9693   55.9631   60.3832 H   0  0  0  0  0  0  0  0  0  0  0  0
  -39.7909   57.8795   62.2027 O   0  0  0  0  0  0  0  0  0  0  0  0
  -38.5682   57.1814   62.5645 C   0  0  0  0  0  0  0  0  0  0  0  0
  -37.4462   58.1684   62.7717 C   0  0  0  0  0  0  0  0  0  0  0  0
  -36.9496   58.3398   64.1954 N   0  0  0  0  0  0  0  0  0  0  0  0
  -36.3413   59.6931   64.3785 C   0  0  0  0  0  0  0  0  0  0  0  0
  -35.9123   57.3004   64.4674 C   0  0  0  0  0  0  0  0  0  0  0  0
  -38.0812   58.1807   65.1704 C   0  0  0  0  0  0  0  0  0  0  0  0
 34 33  1  0  0  0
 34 35  1  0  0  0
 34 36  1  0  0  0
 34 37  1  0  0  0
 22 23  1  0  0  0
 22 25  1  0  0  0
 22 21  1  0  0  0
 23 24  1  0  0  0
 27 26  1  0  0  0
 27 28  2  0  0  0
 27 31  1  0  0  0
 27 29  1  0  0  0
 25 26  1  0  0  0
 32 33  1  0  0  0
 32 31  1  0  0  0
 29 30  1  0  0  0
 20 21  1  0  0  0
 20  2  1  0  0  0
  1  2  2  0  0  0
  2  3  1  0  0  0
  3  4  1  0  0  0
  4  5  1  0  0  0
  5  6  1  0  0  0
  6  7  1  0  0  0
  7  8  1  0  0  0
  8  9  1  0  0  0
  9 10  1  0  0  0
 10 11  2  0  0  0
 11 12  1  0  0  0
 12 13  1  0  0  0
 13 14  1  0  0  0
 14 15  1  0  0  0
 15 16  1  0  0  0
 16 17  1  0  0  0
 17 18  1  0  0  0
 18 19  1  0  0  0
M  CHG 1  28  -1
M  END
> <minimizedAffinity>
-7.86927

> <CNNscore>
0.7645524144

> <CNNaffinity>
7.0905213356

> <CNN_VS>
5.4210753441

> <CNNaffinity_variance>
0.2895555794

$$$$
/media/chris/experiments/cd1a-new-docking/inputs/ligands/4x6e_ligand.pdb


 37 36  0  0  0  0  0  0  0  0999 V2000
  -41.8853   57.2766   63.4500 O   0  0  0  0  0  0  0  0  0  0  0  0
  -42.5179   58.2180   63.8603 C   0  0  0  0  0  0  0  0  0  0  0  0
  -44.0058   58.3671   63.7714 C   0  0  0  0  0  0  0  0  0  0  0  0
  -44.4624   59.8210   63.7528 C   0  0  0  0  0  0  0  0  0  0  0  0
  -45.3598   60.2092   64.9154 C   0  0  0  0  0  0  0  0  0  0  0  0
  -45.0088   59.5017   66.2123 C   0  0  0  0  0  0  0  0  0  0  0  0
  -46.2301   58.9923   66.9582 C   0  0  0  0  0  0  0  0  0  0  0  0
  -47.3077   58.4962   66.0200 C   0  0  0  0  0  0  0  0  0  0  0  0
  -48.6226   59.2436   66.1116 C   0  0  0  0  0  0  0  0  0  0  0  0
  -49.8001   58.4453   65.7013 C   0  0  0  0  0  0  0  0  0  0  0  0
  -50.6366   58.7407   64.7278 C   0  0  0  0  0  0  0  0  0  0  0  0
  -50.5666   59.9105   63.8008 C   0  0  0  0  0  0  0  0  0  0  0  0
  -50.9776   59.4892   62.3891 C   0  0  0  0  0  0  0  0  0  0  0  0
  -50.8024   58.0111   62.0729 C   0  0  0  0  0  0  0  0  0  0  0  0
  -50.7987   57.6660   60.5886 C   0  0  0  0  0  0  0  0  0  0  0  0
  -49.5401   58.1249   59.8596 C   0  0  0  0  0  0  0  0  0  0  0  0
  -49.0800   57.1687   58.7706 C   0  0  0  0  0  0  0  0  0  0  0  0
  -47.9984   56.1820   59.1844 C   0  0  0  0  0  0  0  0  0  0  0  0
  -47.0984   55.7990   58.0499 C   0  0  0  0  0  0  0  0  0  0  0  0
  -41.9787   59.2755   64.4739 O   0  0  0  0  0  0  0  0  0  0  0  0
  -40.8204   59.0528   65.3079 C   0  0  0  0  0  0  0  0  0  0  0  0
  -39.6464   59.9043   64.8733 C   0  0  0  0  0  0  0  0  0  0  0  0
  -40.0877   61.0543   64.1389 O   0  0  0  0  0  0  0  0  0  0  0  0
  -40.6314   61.6157   64.7136 H   0  0  0  0  0  0  0  0  0  0  0  0
  -38.7899   60.3484   66.0358 C   0  0  0  0  0  0  0  0  0  0  0  0
  -37.3844   60.3797   65.6879 O   0  0  0  0  0  0  0  0  0  0  0  0
  -36.5109   61.4027   64.8124 P   0  0  0  0  0  0  0  0  0  0  0  0
  -37.3825   62.6133   64.4821 O   0  0  0  0  0  0  0  0  0  0  0  0
  -36.1301   60.7378   63.5470 O   0  0  0  0  0  0  0  0  0  0  0  0
  -36.9295   60.4455   63.0820 H   0  0  0  0  0  0  0  0  0  0  0  0
  -35.1814   61.9150   65.6340 O   0  0  0  0  0  0  0  0  0  0  0  0
  -34.1741   62.8372   65.1360 C   0  0  0  0  0  0  0  0  0  0  0  0
  -33.8614   63.8810   66.1795 C   0  0  0  0  0  0  0  0  0  0  0  0
  -32.9228   64.9973   65.7603 N   0  0  0  0  0  0  0  0  0  0  0  0
  -31.5505   64.4607   65.5077 C   0  0  0  0  0  0  0  0  0  0  0  0
  -32.8556   66.0033   66.8620 C   0  0  0  0  0  0  0  0  0  0  0  0
  -33.4214   65.6623   64.5090 C   0  0  0  0  0  0  0  0  0  0  0  0
 34 33  1  0  0  0
 34 35  1  0  0  0
 34 36  1  0  0  0
 34 37  1  0  0  0
 22 23  1  0  0  0
 22 25  1  0  0  0
 22 21  1  0  0  0
 23 24  1  0  0  0
 27 26  1  0  0  0
 27 28  2  0  0  0
 27 31  1  0  0  0
 27 29  1  0  0  0
 25 26  1  0  0  0
 32 33  1  0  0  0
 32 31  1  0  0  0
 29 30  1  0  0  0
 20 21  1  0  0  0
 20  2  1  0  0  0
  1  2  2  0  0  0
  2  3  1  0  0  0
  3  4  1  0  0  0
  4  5  1  0  0  0
  5  6  1  0  0  0
  6  7  1  0  0  0
  7  8  1  0  0  0
  8  9  1  0  0  0
  9 10  1  0  0  0
 10 11  2  0  0  0
 11 12  1  0  0  0
 12 13  1  0  0  0
 13 14  1  0  0  0
 14 15  1  0  0  0
 15 16  1  0  0  0
 16 17  1  0  0  0
 17 18  1  0  0  0
 18 19  1  0  0  0
M  CHG 1  28  -1
M  END
> <minimizedAffinity>
-8.01631

> <CNNscore>
0.7085176110

> <CNNaffinity>
6.3440065384

> <CNN_VS>
4.4948401451

> <CNNaffinity_variance>
0.2443294972

$$$$
/media/chris/experiments/cd1a-new-docking/inputs/ligands/4x6e_ligand.pdb


 37 36  0  0  0  0  0  0  0  0999 V2000
  -41.3943   56.1659   63.3273 O   0  0  0  0  0  0  0  0  0  0  0  0
  -42.2519   56.8160   63.8719 C   0  0  0  0  0  0  0  0  0  0  0  0
  -42.8897   56.4819   65.1854 C   0  0  0  0  0  0  0  0  0  0  0  0
  -44.0760   57.3778   65.5209 C   0  0  0  0  0  0  0  0  0  0  0  0
  -43.7711   58.4639   66.5383 C   0  0  0  0  0  0  0  0  0  0  0  0
  -45.0092   59.1832   67.0438 C   0  0  0  0  0  0  0  0  0  0  0  0
  -45.9343   59.6279   65.9240 C   0  0  0  0  0  0  0  0  0  0  0  0
  -47.3791   59.6916   66.3668 C   0  0  0  0  0  0  0  0  0  0  0  0
  -48.3787   59.8890   65.2453 C   0  0  0  0  0  0  0  0  0  0  0  0
  -49.5010   58.9233   65.2605 C   0  0  0  0  0  0  0  0  0  0  0  0
  -50.5924   58.9908   64.5264 C   0  0  0  0  0  0  0  0  0  0  0  0
  -50.9250   60.0197   63.4952 C   0  0  0  0  0  0  0  0  0  0  0  0
  -50.5659   59.5032   62.1010 C   0  0  0  0  0  0  0  0  0  0  0  0
  -50.9228   58.0485   61.8327 C   0  0  0  0  0  0  0  0  0  0  0  0
  -50.5850   57.5501   60.4328 C   0  0  0  0  0  0  0  0  0  0  0  0
  -49.1534   57.0422   60.2959 C   0  0  0  0  0  0  0  0  0  0  0  0
  -48.6743   56.9417   58.8564 C   0  0  0  0  0  0  0  0  0  0  0  0
  -47.5546   55.9414   58.6108 C   0  0  0  0  0  0  0  0  0  0  0  0
  -47.1605   55.8551   57.1682 C   0  0  0  0  0  0  0  0  0  0  0  0
  -42.7578   57.9521   63.3830 O   0  0  0  0  0  0  0  0  0  0  0  0
  -42.4951   58.2658   61.9976 C   0  0  0  0  0  0  0  0  0  0  0  0
  -42.1741   59.7332   61.8077 C   0  0  0  0  0  0  0  0  0  0  0  0
  -41.7153   60.3230   63.0318 O   0  0  0  0  0  0  0  0  0  0  0  0
  -40.8874   59.8977   63.3051 H   0  0  0  0  0  0  0  0  0  0  0  0
  -41.1498   59.9673   60.7222 C   0  0  0  0  0  0  0  0  0  0  0  0
  -40.1357   58.9335   60.7070 O   0  0  0  0  0  0  0  0  0  0  0  0
  -38.8418   58.6762   61.6211 P   0  0  0  0  0  0  0  0  0  0  0  0
  -37.5992   58.8496   60.7493 O   0  0  0  0  0  0  0  0  0  0  0  0
  -38.8798   57.2820   62.1142 O   0  0  0  0  0  0  0  0  0  0  0  0
  -38.9243   56.6735   61.3602 H   0  0  0  0  0  0  0  0  0  0  0  0
  -38.7657   59.7430   62.8707 O   0  0  0  0  0  0  0  0  0  0  0  0
  -37.6000   60.0046   63.6988 C   0  0  0  0  0  0  0  0  0  0  0  0
  -37.2815   61.4792   63.6999 C   0  0  0  0  0  0  0  0  0  0  0  0
  -36.3921   61.9789   64.8234 N   0  0  0  0  0  0  0  0  0  0  0  0
  -34.9623   61.6377   64.5507 C   0  0  0  0  0  0  0  0  0  0  0  0
  -36.8144   61.3200   66.0953 C   0  0  0  0  0  0  0  0  0  0  0  0
  -36.5158   63.4688   64.9698 C   0  0  0  0  0  0  0  0  0  0  0  0
 34 33  1  0  0  0
 34 35  1  0  0  0
 34 36  1  0  0  0
 34 37  1  0  0  0
 22 23  1  0  0  0
 22 25  1  0  0  0
 22 21  1  0  0  0
 23 24  1  0  0  0
 27 26  1  0  0  0
 27 28  2  0  0  0
 27 31  1  0  0  0
 27 29  1  0  0  0
 25 26  1  0  0  0
 32 33  1  0  0  0
 32 31  1  0  0  0
 29 30  1  0  0  0
 20 21  1  0  0  0
 20  2  1  0  0  0
  1  2  2  0  0  0
  2  3  1  0  0  0
  3  4  1  0  0  0
  4  5  1  0  0  0
  5  6  1  0  0  0
  6  7  1  0  0  0
  7  8  1  0  0  0
  8  9  1  0  0  0
  9 10  1  0  0  0
 10 11  2  0  0  0
 11 12  1  0  0  0
 12 13  1  0  0  0
 13 14  1  0  0  0
 14 15  1  0  0  0
 15 16  1  0  0  0
 16 17  1  0  0  0
 17 18  1  0  0  0
 18 19  1  0  0  0
M  CHG 1  28  -1
M  END
> <minimizedAffinity>
-7.62657

> <CNNscore>
0.6804668903

> <CNNaffinity>
6.9374799728

> <CNN_VS>
4.7207255363

> <CNNaffinity_variance>
0.4710720181

$$$$
/media/chris/experiments/cd1a-new-docking/inputs/ligands/4x6e_ligand.pdb


 37 36  0  0  0  0  0  0  0  0999 V2000
  -42.3054   57.0867   63.1598 O   0  0  0  0  0  0  0  0  0  0  0  0
  -41.9957   57.2514   64.3138 C   0  0  0  0  0  0  0  0  0  0  0  0
  -42.8740   56.9733   65.4949 C   0  0  0  0  0  0  0  0  0  0  0  0
  -44.3051   57.4618   65.3059 C   0  0  0  0  0  0  0  0  0  0  0  0
  -44.4796   58.9623   65.4655 C   0  0  0  0  0  0  0  0  0  0  0  0
  -45.4794   59.5614   64.4921 C   0  0  0  0  0  0  0  0  0  0  0  0
  -46.7238   60.0991   65.1776 C   0  0  0  0  0  0  0  0  0  0  0  0
  -47.2665   59.1395   66.2131 C   0  0  0  0  0  0  0  0  0  0  0  0
  -48.1566   58.0452   65.6598 C   0  0  0  0  0  0  0  0  0  0  0  0
  -49.5985   58.2467   65.9291 C   0  0  0  0  0  0  0  0  0  0  0  0
  -50.4597   58.8469   65.1336 C   0  0  0  0  0  0  0  0  0  0  0  0
  -50.1919   59.4172   63.7788 C   0  0  0  0  0  0  0  0  0  0  0  0
  -50.9037   58.5885   62.7083 C   0  0  0  0  0  0  0  0  0  0  0  0
  -50.3766   58.7625   61.2915 C   0  0  0  0  0  0  0  0  0  0  0  0
  -50.2859   57.4785   60.4758 C   0  0  0  0  0  0  0  0  0  0  0  0
  -49.7763   57.6944   59.0545 C   0  0  0  0  0  0  0  0  0  0  0  0
  -48.4184   57.0642   58.7886 C   0  0  0  0  0  0  0  0  0  0  0  0
  -48.0079   56.9944   57.3253 C   0  0  0  0  0  0  0  0  0  0  0  0
  -47.3450   55.6989   56.9703 C   0  0  0  0  0  0  0  0  0  0  0  0
  -40.8028   57.7008   64.7147 O   0  0  0  0  0  0  0  0  0  0  0  0
  -40.7767   58.7597   65.6969 C   0  0  0  0  0  0  0  0  0  0  0  0
  -40.8287   60.1263   65.0472 C   0  0  0  0  0  0  0  0  0  0  0  0
  -41.1825   61.1372   66.0009 O   0  0  0  0  0  0  0  0  0  0  0  0
  -40.4979   61.1889   66.6862 H   0  0  0  0  0  0  0  0  0  0  0  0
  -39.5269   60.5004   64.3778 C   0  0  0  0  0  0  0  0  0  0  0  0
  -39.6450   60.5021   62.9344 O   0  0  0  0  0  0  0  0  0  0  0  0
  -39.0967   59.5026   61.8047 P   0  0  0  0  0  0  0  0  0  0  0  0
  -39.3564   60.1370   60.4392 O   0  0  0  0  0  0  0  0  0  0  0  0
  -39.8541   58.2345   61.8860 O   0  0  0  0  0  0  0  0  0  0  0  0
  -40.8016   58.4168   61.7873 H   0  0  0  0  0  0  0  0  0  0  0  0
  -37.4817   59.2377   61.9676 O   0  0  0  0  0  0  0  0  0  0  0  0
  -36.8666   58.1493   62.7093 C   0  0  0  0  0  0  0  0  0  0  0  0
  -35.3813   58.3800   62.8381 C   0  0  0  0  0  0  0  0  0  0  0  0
  -34.9157   59.1152   64.0813 N   0  0  0  0  0  0  0  0  0  0  0  0
  -34.1174   60.3227   63.7075 C   0  0  0  0  0  0  0  0  0  0  0  0
  -34.0572   58.1956   64.8861 C   0  0  0  0  0  0  0  0  0  0  0  0
  -36.0923   59.5487   64.9084 C   0  0  0  0  0  0  0  0  0  0  0  0
 34 33  1  0  0  0
 34 35  1  0  0  0
 34 36  1  0  0  0
 34 37  1  0  0  0
 22 23  1  0  0  0
 22 25  1  0  0  0
 22 21  1  0  0  0
 23 24  1  0  0  0
 27 26  1  0  0  0
 27 28  2  0  0  0
 27 31  1  0  0  0
 27 29  1  0  0  0
 25 26  1  0  0  0
 32 33  1  0  0  0
 32 31  1  0  0  0
 29 30  1  0  0  0
 20 21  1  0  0  0
 20  2  1  0  0  0
  1  2  2  0  0  0
  2  3  1  0  0  0
  3  4  1  0  0  0
  4  5  1  0  0  0
  5  6  1  0  0  0
  6  7  1  0  0  0
  7  8  1  0  0  0
  8  9  1  0  0  0
  9 10  1  0  0  0
 10 11  2  0  0  0
 11 12  1  0  0  0
 12 13  1  0  0  0
 13 14  1  0  0  0
 14 15  1  0  0  0
 15 16  1  0  0  0
 16 17  1  0  0  0
 17 18  1  0  0  0
 18 19  1  0  0  0
M  CHG 1  28  -1
M  END
> <minimizedAffinity>
-7.69835

> <CNNscore>
0.6738472581

> <CNNaffinity>
6.8011984825

> <CNN_VS>
4.5829687119

> <CNNaffinity_variance>
0.1982206851

$$$$
/media/chris/experiments/cd1a-new-docking/inputs/ligands/4x6e_ligand.pdb


 37 36  0  0  0  0  0  0  0  0999 V2000
  -41.5296   57.8066   63.1256 O   0  0  0  0  0  0  0  0  0  0  0  0
  -42.0296   58.8665   63.4109 C   0  0  0  0  0  0  0  0  0  0  0  0
  -43.2967   59.4120   62.8273 C   0  0  0  0  0  0  0  0  0  0  0  0
  -44.0424   60.3418   63.7770 C   0  0  0  0  0  0  0  0  0  0  0  0
  -45.4844   59.9422   64.0390 C   0  0  0  0  0  0  0  0  0  0  0  0
  -45.6215   58.7475   64.9663 C   0  0  0  0  0  0  0  0  0  0  0  0
  -46.0498   59.1347   66.3714 C   0  0  0  0  0  0  0  0  0  0  0  0
  -47.5543   59.1545   66.5258 C   0  0  0  0  0  0  0  0  0  0  0  0
  -48.2950   58.1606   65.6544 C   0  0  0  0  0  0  0  0  0  0  0  0
  -49.7370   58.4560   65.4943 C   0  0  0  0  0  0  0  0  0  0  0  0
  -50.2763   59.2001   64.5508 C   0  0  0  0  0  0  0  0  0  0  0  0
  -49.5716   59.8732   63.4182 C   0  0  0  0  0  0  0  0  0  0  0  0
  -50.2588   59.5342   62.0944 C   0  0  0  0  0  0  0  0  0  0  0  0
  -50.7840   58.1108   61.9782 C   0  0  0  0  0  0  0  0  0  0  0  0
  -50.8731   57.5712   60.5559 C   0  0  0  0  0  0  0  0  0  0  0  0
  -49.5195   57.4538   59.8629 C   0  0  0  0  0  0  0  0  0  0  0  0
  -48.8888   56.0754   59.9808 C   0  0  0  0  0  0  0  0  0  0  0  0
  -47.5602   55.9030   59.2598 C   0  0  0  0  0  0  0  0  0  0  0  0
  -47.6639   56.1514   57.7863 C   0  0  0  0  0  0  0  0  0  0  0  0
  -41.5265   59.7164   64.3110 O   0  0  0  0  0  0  0  0  0  0  0  0
  -40.1090   59.9902   64.2609 C   0  0  0  0  0  0  0  0  0  0  0  0
  -39.4047   59.5243   65.5175 C   0  0  0  0  0  0  0  0  0  0  0  0
  -38.6756   58.3124   65.2805 O   0  0  0  0  0  0  0  0  0  0  0  0
  -37.9797   58.4767   64.6251 H   0  0  0  0  0  0  0  0  0  0  0  0
  -38.4716   60.5702   66.0814 C   0  0  0  0  0  0  0  0  0  0  0  0
  -38.0876   61.5444   65.0810 O   0  0  0  0  0  0  0  0  0  0  0  0
  -36.7248   62.3537   64.8287 P   0  0  0  0  0  0  0  0  0  0  0  0
  -35.9729   62.4481   66.1553 O   0  0  0  0  0  0  0  0  0  0  0  0
  -37.0627   63.7226   64.3809 O   0  0  0  0  0  0  0  0  0  0  0  0
  -37.6267   64.1498   65.0444 H   0  0  0  0  0  0  0  0  0  0  0  0
  -35.7670   61.5922   63.7296 O   0  0  0  0  0  0  0  0  0  0  0  0
  -34.7089   60.6429   64.0332 C   0  0  0  0  0  0  0  0  0  0  0  0
  -35.2923   59.3831   64.6236 C   0  0  0  0  0  0  0  0  0  0  0  0
  -35.2829   58.1522   63.7362 N   0  0  0  0  0  0  0  0  0  0  0  0
  -33.9384   57.9692   63.1085 C   0  0  0  0  0  0  0  0  0  0  0  0
  -36.3012   58.3329   62.6587 C   0  0  0  0  0  0  0  0  0  0  0  0
  -35.6163   56.9245   64.5351 C   0  0  0  0  0  0  0  0  0  0  0  0
 34 33  1  0  0  0
 34 35  1  0  0  0
 34 36  1  0  0  0
 34 37  1  0  0  0
 22 23  1  0  0  0
 22 25  1  0  0  0
 22 21  1  0  0  0
 23 24  1  0  0  0
 27 26  1  0  0  0
 27 28  2  0  0  0
 27 31  1  0  0  0
 27 29  1  0  0  0
 25 26  1  0  0  0
 32 33  1  0  0  0
 32 31  1  0  0  0
 29 30  1  0  0  0
 20 21  1  0  0  0
 20  2  1  0  0  0
  1  2  2  0  0  0
  2  3  1  0  0  0
  3  4  1  0  0  0
  4  5  1  0  0  0
  5  6  1  0  0  0
  6  7  1  0  0  0
  7  8  1  0  0  0
  8  9  1  0  0  0
  9 10  1  0  0  0
 10 11  2  0  0  0
 11 12  1  0  0  0
 12 13  1  0  0  0
 13 14  1  0  0  0
 14 15  1  0  0  0
 15 16  1  0  0  0
 16 17  1  0  0  0
 17 18  1  0  0  0
 18 19  1  0  0  0
M  CHG 1  28  -1
M  END
> <minimizedAffinity>
-7.71003

> <CNNscore>
0.6472308636

> <CNNaffinity>
6.7244462967

> <CNN_VS>
4.3522691727

> <CNNaffinity_variance>
0.2844470441

$$$$
/media/chris/experiments/cd1a-new-docking/inputs/ligands/4x6e_ligand.pdb


 37 36  0  0  0  0  0  0  0  0999 V2000
  -42.6059   57.1398   66.7247 O   0  0  0  0  0  0  0  0  0  0  0  0
  -42.2801   58.2882   66.5517 C   0  0  0  0  0  0  0  0  0  0  0  0
  -43.0394   59.4863   67.0332 C   0  0  0  0  0  0  0  0  0  0  0  0
  -44.5213   59.4381   66.6809 C   0  0  0  0  0  0  0  0  0  0  0  0
  -44.8062   59.2795   65.1972 C   0  0  0  0  0  0  0  0  0  0  0  0
  -46.0464   60.0251   64.7369 C   0  0  0  0  0  0  0  0  0  0  0  0
  -47.2156   59.1022   64.4387 C   0  0  0  0  0  0  0  0  0  0  0  0
  -47.6283   58.2927   65.6479 C   0  0  0  0  0  0  0  0  0  0  0  0
  -49.1044   57.9573   65.7136 C   0  0  0  0  0  0  0  0  0  0  0  0
  -49.9967   59.1293   65.5630 C   0  0  0  0  0  0  0  0  0  0  0  0
  -50.6967   59.4386   64.4911 C   0  0  0  0  0  0  0  0  0  0  0  0
  -50.7821   58.6670   63.2145 C   0  0  0  0  0  0  0  0  0  0  0  0
  -50.6252   59.6078   62.0189 C   0  0  0  0  0  0  0  0  0  0  0  0
  -49.7359   59.0931   60.8965 C   0  0  0  0  0  0  0  0  0  0  0  0
  -50.2543   57.8509   60.1822 C   0  0  0  0  0  0  0  0  0  0  0  0
  -49.3073   57.3260   59.1080 C   0  0  0  0  0  0  0  0  0  0  0  0
  -48.4914   56.1203   59.5469 C   0  0  0  0  0  0  0  0  0  0  0  0
  -47.2227   55.8659   58.7467 C   0  0  0  0  0  0  0  0  0  0  0  0
  -47.4704   55.8081   57.2705 C   0  0  0  0  0  0  0  0  0  0  0  0
  -41.1724   58.6659   65.9067 O   0  0  0  0  0  0  0  0  0  0  0  0
  -40.7782   60.0526   65.9990 C   0  0  0  0  0  0  0  0  0  0  0  0
  -39.3539   60.2614   65.5302 C   0  0  0  0  0  0  0  0  0  0  0  0
  -38.6890   61.2513   66.3269 O   0  0  0  0  0  0  0  0  0  0  0  0
  -38.6296   60.9415   67.2442 H   0  0  0  0  0  0  0  0  0  0  0  0
  -38.5470   58.9842   65.5391 C   0  0  0  0  0  0  0  0  0  0  0  0
  -37.7211   58.8610   64.3558 O   0  0  0  0  0  0  0  0  0  0  0  0
  -37.8581   57.9647   63.0315 P   0  0  0  0  0  0  0  0  0  0  0  0
  -39.2231   57.2789   63.0582 O   0  0  0  0  0  0  0  0  0  0  0  0
  -36.8078   56.9232   63.0536 O   0  0  0  0  0  0  0  0  0  0  0  0
  -36.8912   56.3970   63.8641 H   0  0  0  0  0  0  0  0  0  0  0  0
  -37.7522   58.8818   61.6702 O   0  0  0  0  0  0  0  0  0  0  0  0
  -38.7695   58.9971   60.6383 C   0  0  0  0  0  0  0  0  0  0  0  0
  -39.7443   60.0943   60.9874 C   0  0  0  0  0  0  0  0  0  0  0  0
  -41.2052   59.6959   61.0863 N   0  0  0  0  0  0  0  0  0  0  0  0
  -41.6426   59.6595   62.5155 C   0  0  0  0  0  0  0  0  0  0  0  0
  -41.3699   58.3351   60.4934 C   0  0  0  0  0  0  0  0  0  0  0  0
  -42.0689   60.6720   60.3396 C   0  0  0  0  0  0  0  0  0  0  0  0
 34 33  1  0  0  0
 34 35  1  0  0  0
 34 36  1  0  0  0
 34 37  1  0  0  0
 22 23  1  0  0  0
 22 25  1  0  0  0
 22 21  1  0  0  0
 23 24  1  0  0  0
 27 26  1  0  0  0
 27 28  2  0  0  0
 27 31  1  0  0  0
 27 29  1  0  0  0
 25 26  1  0  0  0
 32 33  1  0  0  0
 32 31  1  0  0  0
 29 30  1  0  0  0
 20 21  1  0  0  0
 20  2  1  0  0  0
  1  2  2  0  0  0
  2  3  1  0  0  0
  3  4  1  0  0  0
  4  5  1  0  0  0
  5  6  1  0  0  0
  6  7  1  0  0  0
  7  8  1  0  0  0
  8  9  1  0  0  0
  9 10  1  0  0  0
 10 11  2  0  0  0
 11 12  1  0  0  0
 12 13  1  0  0  0
 13 14  1  0  0  0
 14 15  1  0  0  0
 15 16  1  0  0  0
 16 17  1  0  0  0
 17 18  1  0  0  0
 18 19  1  0  0  0
M  CHG 1  28  -1
M  END
> <minimizedAffinity>
-7.93471

> <CNNscore>
0.6417801380

> <CNNaffinity>
7.0311737061

> <CNN_VS>
4.5124678612

> <CNNaffinity_variance>
0.2219005078

$$$$
