/media/chris/experiments/cd1a-new-docking/inputs/ligands/4x6e_ligand.pdb


 37 36  0  0  0  0  0  0  0  0999 V2000
  -42.8434   59.7690   64.1514 O   0  0  0  0  0  0  0  0  0  0  0  0
  -42.3828   59.0429   64.9972 C   0  0  0  0  0  0  0  0  0  0  0  0
  -42.7208   57.5943   65.1734 C   0  0  0  0  0  0  0  0  0  0  0  0
  -44.2203   57.3225   65.1580 C   0  0  0  0  0  0  0  0  0  0  0  0
  -44.8854   57.4099   66.5210 C   0  0  0  0  0  0  0  0  0  0  0  0
  -45.2883   58.8221   66.9073 C   0  0  0  0  0  0  0  0  0  0  0  0
  -46.7930   58.9997   67.0158 C   0  0  0  0  0  0  0  0  0  0  0  0
  -47.4565   59.0991   65.6602 C   0  0  0  0  0  0  0  0  0  0  0  0
  -48.5576   58.0873   65.4165 C   0  0  0  0  0  0  0  0  0  0  0  0
  -49.9225   58.6146   65.6433 C   0  0  0  0  0  0  0  0  0  0  0  0
  -50.6398   59.3064   64.7822 C   0  0  0  0  0  0  0  0  0  0  0  0
  -50.2626   59.6771   63.3848 C   0  0  0  0  0  0  0  0  0  0  0  0
  -50.3537   58.4529   62.4722 C   0  0  0  0  0  0  0  0  0  0  0  0
  -50.2074   58.7363   60.9844 C   0  0  0  0  0  0  0  0  0  0  0  0
  -50.3128   57.5128   60.0821 C   0  0  0  0  0  0  0  0  0  0  0  0
  -49.2430   56.4607   60.3550 C   0  0  0  0  0  0  0  0  0  0  0  0
  -48.2395   56.3000   59.2241 C   0  0  0  0  0  0  0  0  0  0  0  0
  -48.3994   57.2756   58.0678 C   0  0  0  0  0  0  0  0  0  0  0  0
  -47.5869   56.8921   56.8693 C   0  0  0  0  0  0  0  0  0  0  0  0
  -41.4816   59.4258   65.9064 O   0  0  0  0  0  0  0  0  0  0  0  0
  -40.3436   60.1885   65.4480 C   0  0  0  0  0  0  0  0  0  0  0  0
  -39.0381   59.5809   65.9158 C   0  0  0  0  0  0  0  0  0  0  0  0
  -38.5668   58.5945   64.9877 O   0  0  0  0  0  0  0  0  0  0  0  0
  -38.3789   59.0166   64.1350 H   0  0  0  0  0  0  0  0  0  0  0  0
  -37.9619   60.6179   66.1368 C   0  0  0  0  0  0  0  0  0  0  0  0
  -37.9282   61.5949   65.0683 O   0  0  0  0  0  0  0  0  0  0  0  0
  -37.4383   61.5104   63.5423 P   0  0  0  0  0  0  0  0  0  0  0  0
  -36.5277   60.2920   63.3999 O   0  0  0  0  0  0  0  0  0  0  0  0
  -36.6527   62.7241   63.2290 O   0  0  0  0  0  0  0  0  0  0  0  0
  -35.9111   62.7984   63.8498 H   0  0  0  0  0  0  0  0  0  0  0  0
  -38.7086   61.3462   62.5105 O   0  0  0  0  0  0  0  0  0  0  0  0
  -38.8824   60.2833   61.5344 C   0  0  0  0  0  0  0  0  0  0  0  0
  -40.2238   59.6183   61.7209 C   0  0  0  0  0  0  0  0  0  0  0  0
  -40.3663   58.2137   61.1646 N   0  0  0  0  0  0  0  0  0  0  0  0
  -39.2451   57.9062   60.2248 C   0  0  0  0  0  0  0  0  0  0  0  0
  -41.6598   58.1227   60.4236 C   0  0  0  0  0  0  0  0  0  0  0  0
  -40.3579   57.2037   62.2765 C   0  0  0  0  0  0  0  0  0  0  0  0
 34 33  1  0  0  0
 34 35  1  0  0  0
 34 36  1  0  0  0
 34 37  1  0  0  0
 22 23  1  0  0  0
 22 25  1  0  0  0
 22 21  1  0  0  0
 23 24  1  0  0  0
 27 26  1  0  0  0
 27 28  2  0  0  0
 27 31  1  0  0  0
 27 29  1  0  0  0
 25 26  1  0  0  0
 32 33  1  0  0  0
 32 31  1  0  0  0
 29 30  1  0  0  0
 20 21  1  0  0  0
 20  2  1  0  0  0
  1  2  2  0  0  0
  2  3  1  0  0  0
  3  4  1  0  0  0
  4  5  1  0  0  0
  5  6  1  0  0  0
  6  7  1  0  0  0
  7  8  1  0  0  0
  8  9  1  0  0  0
  9 10  1  0  0  0
 10 11  2  0  0  0
 11 12  1  0  0  0
 12 13  1  0  0  0
 13 14  1  0  0  0
 14 15  1  0  0  0
 15 16  1  0  0  0
 16 17  1  0  0  0
 17 18  1  0  0  0
 18 19  1  0  0  0
M  CHG 1  28  -1
M  END
> <minimizedAffinity>
-7.76048

> <CNNscore>
0.8499551415

> <CNNaffinity>
7.3628134727

> <CNN_VS>
6.2580609322

> <CNNaffinity_variance>
0.2611983418

$$$$
/media/chris/experiments/cd1a-new-docking/inputs/ligands/4x6e_ligand.pdb


 37 36  0  0  0  0  0  0  0  0999 V2000
  -40.6942   57.5676   65.0242 O   0  0  0  0  0  0  0  0  0  0  0  0
  -40.1148   58.5278   65.4683 C   0  0  0  0  0  0  0  0  0  0  0  0
  -40.7700   59.7563   66.0206 C   0  0  0  0  0  0  0  0  0  0  0  0
  -42.0252   59.4537   66.8303 C   0  0  0  0  0  0  0  0  0  0  0  0
  -43.3241   59.6597   66.0702 C   0  0  0  0  0  0  0  0  0  0  0  0
  -44.5451   59.1389   66.8078 C   0  0  0  0  0  0  0  0  0  0  0  0
  -45.5748   58.5150   65.8815 C   0  0  0  0  0  0  0  0  0  0  0  0
  -46.5782   59.5280   65.3767 C   0  0  0  0  0  0  0  0  0  0  0  0
  -47.9418   59.4524   66.0330 C   0  0  0  0  0  0  0  0  0  0  0  0
  -48.8259   58.4072   65.4689 C   0  0  0  0  0  0  0  0  0  0  0  0
  -49.9214   58.6135   64.7676 C   0  0  0  0  0  0  0  0  0  0  0  0
  -50.4927   59.9299   64.3516 C   0  0  0  0  0  0  0  0  0  0  0  0
  -51.1775   59.8002   62.9900 C   0  0  0  0  0  0  0  0  0  0  0  0
  -50.3221   59.1988   61.8845 C   0  0  0  0  0  0  0  0  0  0  0  0
  -50.7463   57.8089   61.4258 C   0  0  0  0  0  0  0  0  0  0  0  0
  -49.7097   57.1140   60.5490 C   0  0  0  0  0  0  0  0  0  0  0  0
  -49.6402   57.6614   59.1322 C   0  0  0  0  0  0  0  0  0  0  0  0
  -48.3913   57.2852   58.3490 C   0  0  0  0  0  0  0  0  0  0  0  0
  -47.8556   55.9378   58.7246 C   0  0  0  0  0  0  0  0  0  0  0  0
  -38.7850   58.6334   65.5453 O   0  0  0  0  0  0  0  0  0  0  0  0
  -37.9895   57.7298   64.7467 C   0  0  0  0  0  0  0  0  0  0  0  0
  -36.6005   58.2785   64.4979 C   0  0  0  0  0  0  0  0  0  0  0  0
  -35.6185   57.2344   64.5408 O   0  0  0  0  0  0  0  0  0  0  0  0
  -35.7905   56.5993   63.8282 H   0  0  0  0  0  0  0  0  0  0  0  0
  -36.4946   59.0146   63.1829 C   0  0  0  0  0  0  0  0  0  0  0  0
  -36.5089   60.4510   63.3673 O   0  0  0  0  0  0  0  0  0  0  0  0
  -37.7059   61.5063   63.5388 P   0  0  0  0  0  0  0  0  0  0  0  0
  -37.3346   62.7773   62.7767 O   0  0  0  0  0  0  0  0  0  0  0  0
  -37.8410   61.8404   64.9735 O   0  0  0  0  0  0  0  0  0  0  0  0
  -36.9972   62.1841   65.3063 H   0  0  0  0  0  0  0  0  0  0  0  0
  -39.1178   60.9186   62.9336 O   0  0  0  0  0  0  0  0  0  0  0  0
  -39.2792   60.2246   61.6666 C   0  0  0  0  0  0  0  0  0  0  0  0
  -40.0562   58.9471   61.8671 C   0  0  0  0  0  0  0  0  0  0  0  0
  -41.4138   58.8676   61.1938 N   0  0  0  0  0  0  0  0  0  0  0  0
  -41.4073   57.8242   60.1232 C   0  0  0  0  0  0  0  0  0  0  0  0
  -41.7195   60.1933   60.5779 C   0  0  0  0  0  0  0  0  0  0  0  0
  -42.4795   58.5271   62.1963 C   0  0  0  0  0  0  0  0  0  0  0  0
 34 33  1  0  0  0
 34 35  1  0  0  0
 34 36  1  0  0  0
 34 37  1  0  0  0
 22 23  1  0  0  0
 22 25  1  0  0  0
 22 21  1  0  0  0
 23 24  1  0  0  0
 27 26  1  0  0  0
 27 28  2  0  0  0
 27 31  1  0  0  0
 27 29  1  0  0  0
 25 26  1  0  0  0
 32 33  1  0  0  0
 32 31  1  0  0  0
 29 30  1  0  0  0
 20 21  1  0  0  0
 20  2  1  0  0  0
  1  2  2  0  0  0
  2  3  1  0  0  0
  3  4  1  0  0  0
  4  5  1  0  0  0
  5  6  1  0  0  0
  6  7  1  0  0  0
  7  8  1  0  0  0
  8  9  1  0  0  0
  9 10  1  0  0  0
 10 11  2  0  0  0
 11 12  1  0  0  0
 12 13  1  0  0  0
 13 14  1  0  0  0
 14 15  1  0  0  0
 15 16  1  0  0  0
 16 17  1  0  0  0
 17 18  1  0  0  0
 18 19  1  0  0  0
M  CHG 1  28  -1
M  END
> <minimizedAffinity>
-7.87746

> <CNNscore>
0.7712183595

> <CNNaffinity>
7.0445394516

> <CNN_VS>
5.4328780174

> <CNNaffinity_variance>
0.1421754658

$$$$
/media/chris/experiments/cd1a-new-docking/inputs/ligands/4x6e_ligand.pdb


 37 36  0  0  0  0  0  0  0  0999 V2000
  -41.3708   60.9642   64.6627 O   0  0  0  0  0  0  0  0  0  0  0  0
  -40.9361   60.4214   65.6481 C   0  0  0  0  0  0  0  0  0  0  0  0
  -41.5387   59.2228   66.3143 C   0  0  0  0  0  0  0  0  0  0  0  0
  -42.9231   59.4909   66.8924 C   0  0  0  0  0  0  0  0  0  0  0  0
  -44.0621   59.2818   65.9094 C   0  0  0  0  0  0  0  0  0  0  0  0
  -45.4308   59.2570   66.5667 C   0  0  0  0  0  0  0  0  0  0  0  0
  -46.4801   60.0220   65.7785 C   0  0  0  0  0  0  0  0  0  0  0  0
  -47.8805   59.7607   66.2867 C   0  0  0  0  0  0  0  0  0  0  0  0
  -48.9818   60.0360   65.2832 C   0  0  0  0  0  0  0  0  0  0  0  0
  -48.5432   59.9630   63.8709 C   0  0  0  0  0  0  0  0  0  0  0  0
  -49.2857   59.5989   62.8458 C   0  0  0  0  0  0  0  0  0  0  0  0
  -50.7312   59.2210   62.8669 C   0  0  0  0  0  0  0  0  0  0  0  0
  -51.0211   58.1867   61.7780 C   0  0  0  0  0  0  0  0  0  0  0  0
  -49.9294   58.0182   60.7314 C   0  0  0  0  0  0  0  0  0  0  0  0
  -49.1464   56.7141   60.8216 C   0  0  0  0  0  0  0  0  0  0  0  0
  -48.4711   56.3171   59.5130 C   0  0  0  0  0  0  0  0  0  0  0  0
  -48.6877   57.3137   58.3852 C   0  0  0  0  0  0  0  0  0  0  0  0
  -47.7580   57.1583   57.1910 C   0  0  0  0  0  0  0  0  0  0  0  0
  -47.2448   55.7599   57.0341 C   0  0  0  0  0  0  0  0  0  0  0  0
  -39.8309   60.8071   66.2926 O   0  0  0  0  0  0  0  0  0  0  0  0
  -38.5776   60.2043   65.9018 C   0  0  0  0  0  0  0  0  0  0  0  0
  -37.6998   61.1791   65.1458 C   0  0  0  0  0  0  0  0  0  0  0  0
  -37.3995   62.3303   65.9465 O   0  0  0  0  0  0  0  0  0  0  0  0
  -36.8919   62.0578   66.7268 H   0  0  0  0  0  0  0  0  0  0  0  0
  -36.4125   60.5498   64.6673 C   0  0  0  0  0  0  0  0  0  0  0  0
  -36.5655   59.9348   63.3650 O   0  0  0  0  0  0  0  0  0  0  0  0
  -36.4947   58.4077   62.8764 P   0  0  0  0  0  0  0  0  0  0  0  0
  -37.0658   57.5248   63.9848 O   0  0  0  0  0  0  0  0  0  0  0  0
  -35.0765   58.0424   62.6676 O   0  0  0  0  0  0  0  0  0  0  0  0
  -34.5805   58.1894   63.4882 H   0  0  0  0  0  0  0  0  0  0  0  0
  -37.3732   58.1728   61.5060 O   0  0  0  0  0  0  0  0  0  0  0  0
  -38.4896   58.9889   61.0583 C   0  0  0  0  0  0  0  0  0  0  0  0
  -39.6642   58.8221   61.9904 C   0  0  0  0  0  0  0  0  0  0  0  0
  -40.7116   57.8022   61.5837 N   0  0  0  0  0  0  0  0  0  0  0  0
  -42.0862   58.3585   61.7740 C   0  0  0  0  0  0  0  0  0  0  0  0
  -40.5556   56.5897   62.4416 C   0  0  0  0  0  0  0  0  0  0  0  0
  -40.5397   57.4171   60.1420 C   0  0  0  0  0  0  0  0  0  0  0  0
 34 33  1  0  0  0
 34 35  1  0  0  0
 34 36  1  0  0  0
 34 37  1  0  0  0
 22 23  1  0  0  0
 22 25  1  0  0  0
 22 21  1  0  0  0
 23 24  1  0  0  0
 27 26  1  0  0  0
 27 28  2  0  0  0
 27 31  1  0  0  0
 27 29  1  0  0  0
 25 26  1  0  0  0
 32 33  1  0  0  0
 32 31  1  0  0  0
 29 30  1  0  0  0
 20 21  1  0  0  0
 20  2  1  0  0  0
  1  2  2  0  0  0
  2  3  1  0  0  0
  3  4  1  0  0  0
  4  5  1  0  0  0
  5  6  1  0  0  0
  6  7  1  0  0  0
  7  8  1  0  0  0
  8  9  1  0  0  0
  9 10  1  0  0  0
 10 11  2  0  0  0
 11 12  1  0  0  0
 12 13  1  0  0  0
 13 14  1  0  0  0
 14 15  1  0  0  0
 15 16  1  0  0  0
 16 17  1  0  0  0
 17 18  1  0  0  0
 18 19  1  0  0  0
M  CHG 1  28  -1
M  END
> <minimizedAffinity>
-8.09070

> <CNNscore>
0.7443593144

> <CNNaffinity>
7.0679979324

> <CNN_VS>
5.2611303329

> <CNNaffinity_variance>
0.1674804837

$$$$
/media/chris/experiments/cd1a-new-docking/inputs/ligands/4x6e_ligand.pdb


 37 36  0  0  0  0  0  0  0  0999 V2000
  -41.7250   57.7974   61.7504 O   0  0  0  0  0  0  0  0  0  0  0  0
  -41.8849   58.8673   62.2837 C   0  0  0  0  0  0  0  0  0  0  0  0
  -42.3914   59.0734   63.6782 C   0  0  0  0  0  0  0  0  0  0  0  0
  -43.8674   58.7287   63.8369 C   0  0  0  0  0  0  0  0  0  0  0  0
  -44.2052   58.0067   65.1300 C   0  0  0  0  0  0  0  0  0  0  0  0
  -44.3289   58.9346   66.3257 C   0  0  0  0  0  0  0  0  0  0  0  0
  -45.6409   58.7661   67.0726 C   0  0  0  0  0  0  0  0  0  0  0  0
  -46.4073   57.5454   66.6144 C   0  0  0  0  0  0  0  0  0  0  0  0
  -47.8329   57.8173   66.1789 C   0  0  0  0  0  0  0  0  0  0  0  0
  -48.2127   59.2479   66.2160 C   0  0  0  0  0  0  0  0  0  0  0  0
  -49.3121   59.7719   65.7147 C   0  0  0  0  0  0  0  0  0  0  0  0
  -50.4312   59.0477   65.0397 C   0  0  0  0  0  0  0  0  0  0  0  0
  -51.1478   59.9801   64.0615 C   0  0  0  0  0  0  0  0  0  0  0  0
  -51.1776   59.5092   62.6148 C   0  0  0  0  0  0  0  0  0  0  0  0
  -50.2786   58.3181   62.3065 C   0  0  0  0  0  0  0  0  0  0  0  0
  -50.5786   57.6599   60.9637 C   0  0  0  0  0  0  0  0  0  0  0  0
  -49.5901   58.0258   59.8680 C   0  0  0  0  0  0  0  0  0  0  0  0
  -48.7982   56.8626   59.2898 C   0  0  0  0  0  0  0  0  0  0  0  0
  -48.2453   57.1571   57.9293 C   0  0  0  0  0  0  0  0  0  0  0  0
  -41.6186   60.0422   61.7055 O   0  0  0  0  0  0  0  0  0  0  0  0
  -40.4718   60.1183   60.8302 C   0  0  0  0  0  0  0  0  0  0  0  0
  -39.1852   59.8098   61.5662 C   0  0  0  0  0  0  0  0  0  0  0  0
  -38.0973   59.6299   60.6493 O   0  0  0  0  0  0  0  0  0  0  0  0
  -37.9415   60.4564   60.1663 H   0  0  0  0  0  0  0  0  0  0  0  0
  -38.8229   60.8762   62.5731 C   0  0  0  0  0  0  0  0  0  0  0  0
  -39.0431   60.4296   63.9330 O   0  0  0  0  0  0  0  0  0  0  0  0
  -38.0587   60.2703   65.1905 P   0  0  0  0  0  0  0  0  0  0  0  0
  -38.2541   58.8726   65.7758 O   0  0  0  0  0  0  0  0  0  0  0  0
  -38.4357   61.2669   66.2166 O   0  0  0  0  0  0  0  0  0  0  0  0
  -39.3665   61.1439   66.4602 H   0  0  0  0  0  0  0  0  0  0  0  0
  -36.4841   60.4444   64.7483 O   0  0  0  0  0  0  0  0  0  0  0  0
  -35.4284   61.0224   65.5632 C   0  0  0  0  0  0  0  0  0  0  0  0
  -34.7723   62.1671   64.8315 C   0  0  0  0  0  0  0  0  0  0  0  0
  -35.2897   63.5581   65.1477 N   0  0  0  0  0  0  0  0  0  0  0  0
  -35.7869   63.6246   66.5561 C   0  0  0  0  0  0  0  0  0  0  0  0
  -36.4172   63.8704   64.2195 C   0  0  0  0  0  0  0  0  0  0  0  0
  -34.2013   64.5779   64.9691 C   0  0  0  0  0  0  0  0  0  0  0  0
 34 33  1  0  0  0
 34 35  1  0  0  0
 34 36  1  0  0  0
 34 37  1  0  0  0
 22 23  1  0  0  0
 22 25  1  0  0  0
 22 21  1  0  0  0
 23 24  1  0  0  0
 27 26  1  0  0  0
 27 28  2  0  0  0
 27 31  1  0  0  0
 27 29  1  0  0  0
 25 26  1  0  0  0
 32 33  1  0  0  0
 32 31  1  0  0  0
 29 30  1  0  0  0
 20 21  1  0  0  0
 20  2  1  0  0  0
  1  2  2  0  0  0
  2  3  1  0  0  0
  3  4  1  0  0  0
  4  5  1  0  0  0
  5  6  1  0  0  0
  6  7  1  0  0  0
  7  8  1  0  0  0
  8  9  1  0  0  0
  9 10  1  0  0  0
 10 11  2  0  0  0
 11 12  1  0  0  0
 12 13  1  0  0  0
 13 14  1  0  0  0
 14 15  1  0  0  0
 15 16  1  0  0  0
 16 17  1  0  0  0
 17 18  1  0  0  0
 18 19  1  0  0  0
M  CHG 1  28  -1
M  END
> <minimizedAffinity>
-7.73060

> <CNNscore>
0.6996539831

> <CNNaffinity>
6.6948561668

> <CNN_VS>
4.6840829849

> <CNNaffinity_variance>
0.4335684180

$$$$
/media/chris/experiments/cd1a-new-docking/inputs/ligands/4x6e_ligand.pdb


 37 36  0  0  0  0  0  0  0  0999 V2000
  -42.9432   57.3658   66.5070 O   0  0  0  0  0  0  0  0  0  0  0  0
  -42.8766   58.3250   65.7787 C   0  0  0  0  0  0  0  0  0  0  0  0
  -43.9233   59.3886   65.6488 C   0  0  0  0  0  0  0  0  0  0  0  0
  -44.6952   59.3128   64.3369 C   0  0  0  0  0  0  0  0  0  0  0  0
  -46.1788   59.0302   64.5001 C   0  0  0  0  0  0  0  0  0  0  0  0
  -46.9220   60.1188   65.2541 C   0  0  0  0  0  0  0  0  0  0  0  0
  -47.9671   59.5692   66.2097 C   0  0  0  0  0  0  0  0  0  0  0  0
  -48.6608   58.3445   65.6561 C   0  0  0  0  0  0  0  0  0  0  0  0
  -50.1713   58.4454   65.5910 C   0  0  0  0  0  0  0  0  0  0  0  0
  -50.6657   59.6527   64.8910 C   0  0  0  0  0  0  0  0  0  0  0  0
  -50.8722   59.7683   63.5954 C   0  0  0  0  0  0  0  0  0  0  0  0
  -50.6968   58.7101   62.5551 C   0  0  0  0  0  0  0  0  0  0  0  0
  -50.1167   59.3187   61.2773 C   0  0  0  0  0  0  0  0  0  0  0  0
  -49.7226   58.3192   60.1997 C   0  0  0  0  0  0  0  0  0  0  0  0
  -49.1986   56.9857   60.7185 C   0  0  0  0  0  0  0  0  0  0  0  0
  -48.8992   55.9774   59.6140 C   0  0  0  0  0  0  0  0  0  0  0  0
  -47.4374   55.9419   59.1972 C   0  0  0  0  0  0  0  0  0  0  0  0
  -47.1893   55.8402   57.6997 C   0  0  0  0  0  0  0  0  0  0  0  0
  -47.5593   57.0917   56.9645 C   0  0  0  0  0  0  0  0  0  0  0  0
  -41.8397   58.5904   64.9787 O   0  0  0  0  0  0  0  0  0  0  0  0
  -40.5193   58.5926   65.5648 C   0  0  0  0  0  0  0  0  0  0  0  0
  -39.8603   59.9512   65.4532 C   0  0  0  0  0  0  0  0  0  0  0  0
  -40.6812   60.9718   66.0370 O   0  0  0  0  0  0  0  0  0  0  0  0
  -40.7864   60.7990   66.9855 H   0  0  0  0  0  0  0  0  0  0  0  0
  -38.4895   59.9847   66.0873 C   0  0  0  0  0  0  0  0  0  0  0  0
  -37.6312   60.9695   65.4621 O   0  0  0  0  0  0  0  0  0  0  0  0
  -37.3201   61.3113   63.9251 P   0  0  0  0  0  0  0  0  0  0  0  0
  -35.9195   61.9161   63.8445 O   0  0  0  0  0  0  0  0  0  0  0  0
  -38.2958   62.3200   63.4572 O   0  0  0  0  0  0  0  0  0  0  0  0
  -38.2475   63.1046   64.0255 H   0  0  0  0  0  0  0  0  0  0  0  0
  -37.3696   59.9617   62.9864 O   0  0  0  0  0  0  0  0  0  0  0  0
  -38.3969   59.6393   62.0099 C   0  0  0  0  0  0  0  0  0  0  0  0
  -38.9402   58.2546   62.2624 C   0  0  0  0  0  0  0  0  0  0  0  0
  -40.2076   57.8784   61.5177 N   0  0  0  0  0  0  0  0  0  0  0  0
  -40.8066   56.6369   62.0967 C   0  0  0  0  0  0  0  0  0  0  0  0
  -39.8639   57.6295   60.0858 C   0  0  0  0  0  0  0  0  0  0  0  0
  -41.2166   58.9881   61.6016 C   0  0  0  0  0  0  0  0  0  0  0  0
 34 33  1  0  0  0
 34 35  1  0  0  0
 34 36  1  0  0  0
 34 37  1  0  0  0
 22 23  1  0  0  0
 22 25  1  0  0  0
 22 21  1  0  0  0
 23 24  1  0  0  0
 27 26  1  0  0  0
 27 28  2  0  0  0
 27 31  1  0  0  0
 27 29  1  0  0  0
 25 26  1  0  0  0
 32 33  1  0  0  0
 32 31  1  0  0  0
 29 30  1  0  0  0
 20 21  1  0  0  0
 20  2  1  0  0  0
  1  2  2  0  0  0
  2  3  1  0  0  0
  3  4  1  0  0  0
  4  5  1  0  0  0
  5  6  1  0  0  0
  6  7  1  0  0  0
  7  8  1  0  0  0
  8  9  1  0  0  0
  9 10  1  0  0  0
 10 11  2  0  0  0
 11 12  1  0  0  0
 12 13  1  0  0  0
 13 14  1  0  0  0
 14 15  1  0  0  0
 15 16  1  0  0  0
 16 17  1  0  0  0
 17 18  1  0  0  0
 18 19  1  0  0  0
M  CHG 1  28  -1
M  END
> <minimizedAffinity>
-7.85328

> <CNNscore>
0.6609671712

> <CNNaffinity>
6.9035539627

> <CNN_VS>
4.5630226135

> <CNNaffinity_variance>
0.1977141798

$$$$
/media/chris/experiments/cd1a-new-docking/inputs/ligands/4x6e_ligand.pdb


 37 36  0  0  0  0  0  0  0  0999 V2000
  -39.9115   57.4713   61.6529 O   0  0  0  0  0  0  0  0  0  0  0  0
  -39.9031   58.0428   62.7150 C   0  0  0  0  0  0  0  0  0  0  0  0
  -41.0759   58.1744   63.6375 C   0  0  0  0  0  0  0  0  0  0  0  0
  -40.6765   58.4948   65.0729 C   0  0  0  0  0  0  0  0  0  0  0  0
  -41.7576   58.2091   66.1011 C   0  0  0  0  0  0  0  0  0  0  0  0
  -42.0026   59.3632   67.0571 C   0  0  0  0  0  0  0  0  0  0  0  0
  -43.4730   59.7207   67.1892 C   0  0  0  0  0  0  0  0  0  0  0  0
  -44.3596   58.8055   66.3744 C   0  0  0  0  0  0  0  0  0  0  0  0
  -45.8464   59.0325   66.5586 C   0  0  0  0  0  0  0  0  0  0  0  0
  -46.5350   59.5324   65.3469 C   0  0  0  0  0  0  0  0  0  0  0  0
  -47.7237   59.1586   64.9203 C   0  0  0  0  0  0  0  0  0  0  0  0
  -48.6538   58.1890   65.5740 C   0  0  0  0  0  0  0  0  0  0  0  0
  -50.1042   58.6279   65.3651 C   0  0  0  0  0  0  0  0  0  0  0  0
  -50.3300   59.6127   64.2273 C   0  0  0  0  0  0  0  0  0  0  0  0
  -51.1032   59.0564   63.0379 C   0  0  0  0  0  0  0  0  0  0  0  0
  -50.4555   59.3649   61.6920 C   0  0  0  0  0  0  0  0  0  0  0  0
  -49.8527   58.1475   61.0091 C   0  0  0  0  0  0  0  0  0  0  0  0
  -50.0097   58.1046   59.4965 C   0  0  0  0  0  0  0  0  0  0  0  0
  -48.9176   57.3325   58.8221 C   0  0  0  0  0  0  0  0  0  0  0  0
  -38.8285   58.6403   63.2382 O   0  0  0  0  0  0  0  0  0  0  0  0
  -37.5840   58.5470   62.5105 C   0  0  0  0  0  0  0  0  0  0  0  0
  -36.3971   58.4388   63.4441 C   0  0  0  0  0  0  0  0  0  0  0  0
  -35.3121   59.2627   62.9962 O   0  0  0  0  0  0  0  0  0  0  0  0
  -35.5851   60.1933   63.0119 H   0  0  0  0  0  0  0  0  0  0  0  0
  -36.7457   58.7978   64.8696 C   0  0  0  0  0  0  0  0  0  0  0  0
  -36.5932   60.2160   65.1203 O   0  0  0  0  0  0  0  0  0  0  0  0
  -37.6595   61.4007   65.3081 P   0  0  0  0  0  0  0  0  0  0  0  0
  -38.7304   60.9279   66.2897 O   0  0  0  0  0  0  0  0  0  0  0  0
  -38.3030   61.6701   64.0036 O   0  0  0  0  0  0  0  0  0  0  0  0
  -38.7123   60.8562   63.6707 H   0  0  0  0  0  0  0  0  0  0  0  0
  -36.9516   62.7581   65.9092 O   0  0  0  0  0  0  0  0  0  0  0  0
  -35.6937   62.8137   66.6353 C   0  0  0  0  0  0  0  0  0  0  0  0
  -35.0032   64.1311   66.3822 C   0  0  0  0  0  0  0  0  0  0  0  0
  -34.0190   64.1689   65.2280 N   0  0  0  0  0  0  0  0  0  0  0  0
  -34.6756   64.7060   63.9969 C   0  0  0  0  0  0  0  0  0  0  0  0
  -33.5458   62.7783   64.9584 C   0  0  0  0  0  0  0  0  0  0  0  0
  -32.8418   65.0378   65.5681 C   0  0  0  0  0  0  0  0  0  0  0  0
 34 33  1  0  0  0
 34 35  1  0  0  0
 34 36  1  0  0  0
 34 37  1  0  0  0
 22 23  1  0  0  0
 22 25  1  0  0  0
 22 21  1  0  0  0
 23 24  1  0  0  0
 27 26  1  0  0  0
 27 28  2  0  0  0
 27 31  1  0  0  0
 27 29  1  0  0  0
 25 26  1  0  0  0
 32 33  1  0  0  0
 32 31  1  0  0  0
 29 30  1  0  0  0
 20 21  1  0  0  0
 20  2  1  0  0  0
  1  2  2  0  0  0
  2  3  1  0  0  0
  3  4  1  0  0  0
  4  5  1  0  0  0
  5  6  1  0  0  0
  6  7  1  0  0  0
  7  8  1  0  0  0
  8  9  1  0  0  0
  9 10  1  0  0  0
 10 11  2  0  0  0
 11 12  1  0  0  0
 12 13  1  0  0  0
 13 14  1  0  0  0
 14 15  1  0  0  0
 15 16  1  0  0  0
 16 17  1  0  0  0
 17 18  1  0  0  0
 18 19  1  0  0  0
M  CHG 1  28  -1
M  END
> <minimizedAffinity>
-7.41370

> <CNNscore>
0.6235477924

> <CNNaffinity>
6.3316311836

> <CNN_VS>
3.9480745792

> <CNNaffinity_variance>
0.1117144972

$$$$
/media/chris/experiments/cd1a-new-docking/inputs/ligands/4x6e_ligand.pdb


 37 36  0  0  0  0  0  0  0  0999 V2000
  -43.2674   59.0499   66.8882 O   0  0  0  0  0  0  0  0  0  0  0  0
  -43.3564   59.3575   65.7253 C   0  0  0  0  0  0  0  0  0  0  0  0
  -44.4662   60.1647   65.1249 C   0  0  0  0  0  0  0  0  0  0  0  0
  -45.2481   59.4082   64.0577 C   0  0  0  0  0  0  0  0  0  0  0  0
  -46.7521   59.6108   64.1235 C   0  0  0  0  0  0  0  0  0  0  0  0
  -47.2368   60.1055   65.4749 C   0  0  0  0  0  0  0  0  0  0  0  0
  -48.0166   59.0541   66.2455 C   0  0  0  0  0  0  0  0  0  0  0  0
  -48.8509   58.1799   65.3359 C   0  0  0  0  0  0  0  0  0  0  0  0
  -50.3409   58.4505   65.3867 C   0  0  0  0  0  0  0  0  0  0  0  0
  -50.7417   59.7369   64.7729 C   0  0  0  0  0  0  0  0  0  0  0  0
  -50.6013   60.0692   63.5063 C   0  0  0  0  0  0  0  0  0  0  0  0
  -50.0513   59.2211   62.4059 C   0  0  0  0  0  0  0  0  0  0  0  0
  -51.1622   58.3656   61.7947 C   0  0  0  0  0  0  0  0  0  0  0  0
  -50.6969   57.2849   60.8297 C   0  0  0  0  0  0  0  0  0  0  0  0
  -49.1957   57.0234   60.8307 C   0  0  0  0  0  0  0  0  0  0  0  0
  -48.6733   56.4673   59.5101 C   0  0  0  0  0  0  0  0  0  0  0  0
  -48.6575   57.4850   58.3805 C   0  0  0  0  0  0  0  0  0  0  0  0
  -47.8837   57.0680   57.1388 C   0  0  0  0  0  0  0  0  0  0  0  0
  -47.5208   55.6148   57.1427 C   0  0  0  0  0  0  0  0  0  0  0  0
  -42.4594   59.0295   64.7908 O   0  0  0  0  0  0  0  0  0  0  0  0
  -41.3650   58.1701   65.1788 C   0  0  0  0  0  0  0  0  0  0  0  0
  -40.0268   58.8577   65.0093 C   0  0  0  0  0  0  0  0  0  0  0  0
  -39.8184   59.2511   63.6461 O   0  0  0  0  0  0  0  0  0  0  0  0
  -40.4913   59.9014   63.3908 H   0  0  0  0  0  0  0  0  0  0  0  0
  -39.8753   60.0620   65.9088 C   0  0  0  0  0  0  0  0  0  0  0  0
  -38.4838   60.3698   66.1664 O   0  0  0  0  0  0  0  0  0  0  0  0
  -37.3933   61.2116   65.3429 P   0  0  0  0  0  0  0  0  0  0  0  0
  -38.0370   61.6804   64.0391 O   0  0  0  0  0  0  0  0  0  0  0  0
  -36.2579   60.3223   65.0139 O   0  0  0  0  0  0  0  0  0  0  0  0
  -36.5818   59.5547   64.5171 H   0  0  0  0  0  0  0  0  0  0  0  0
  -36.8865   62.5288   66.1874 O   0  0  0  0  0  0  0  0  0  0  0  0
  -35.5060   62.8680   66.4908 C   0  0  0  0  0  0  0  0  0  0  0  0
  -35.1122   64.1379   65.7777 C   0  0  0  0  0  0  0  0  0  0  0  0
  -34.0192   64.0162   64.7322 N   0  0  0  0  0  0  0  0  0  0  0  0
  -34.2965   62.8682   63.8155 C   0  0  0  0  0  0  0  0  0  0  0  0
  -32.7184   63.7796   65.4268 C   0  0  0  0  0  0  0  0  0  0  0  0
  -33.9267   65.2753   63.9182 C   0  0  0  0  0  0  0  0  0  0  0  0
 34 33  1  0  0  0
 34 35  1  0  0  0
 34 36  1  0  0  0
 34 37  1  0  0  0
 22 23  1  0  0  0
 22 25  1  0  0  0
 22 21  1  0  0  0
 23 24  1  0  0  0
 27 26  1  0  0  0
 27 28  2  0  0  0
 27 31  1  0  0  0
 27 29  1  0  0  0
 25 26  1  0  0  0
 32 33  1  0  0  0
 32 31  1  0  0  0
 29 30  1  0  0  0
 20 21  1  0  0  0
 20  2  1  0  0  0
  1  2  2  0  0  0
  2  3  1  0  0  0
  3  4  1  0  0  0
  4  5  1  0  0  0
  5  6  1  0  0  0
  6  7  1  0  0  0
  7  8  1  0  0  0
  8  9  1  0  0  0
  9 10  1  0  0  0
 10 11  2  0  0  0
 11 12  1  0  0  0
 12 13  1  0  0  0
 13 14  1  0  0  0
 14 15  1  0  0  0
 15 16  1  0  0  0
 16 17  1  0  0  0
 17 18  1  0  0  0
 18 19  1  0  0  0
M  CHG 1  28  -1
M  END
> <minimizedAffinity>
-7.86240

> <CNNscore>
0.6192488074

> <CNNaffinity>
6.2172498703

> <CNN_VS>
3.8500244617

> <CNNaffinity_variance>
0.0927345082

$$$$
/media/chris/experiments/cd1a-new-docking/inputs/ligands/4x6e_ligand.pdb


 37 36  0  0  0  0  0  0  0  0999 V2000
  -41.2176   59.1313   66.3786 O   0  0  0  0  0  0  0  0  0  0  0  0
  -41.5679   58.6459   65.3315 C   0  0  0  0  0  0  0  0  0  0  0  0
  -42.7008   57.6812   65.1596 C   0  0  0  0  0  0  0  0  0  0  0  0
  -43.4590   57.8738   63.8516 C   0  0  0  0  0  0  0  0  0  0  0  0
  -44.7532   58.6571   63.9888 C   0  0  0  0  0  0  0  0  0  0  0  0
  -45.6124   58.2049   65.1564 C   0  0  0  0  0  0  0  0  0  0  0  0
  -45.9607   59.3362   66.1084 C   0  0  0  0  0  0  0  0  0  0  0  0
  -47.0739   60.2103   65.5752 C   0  0  0  0  0  0  0  0  0  0  0  0
  -48.4134   60.0189   66.2571 C   0  0  0  0  0  0  0  0  0  0  0  0
  -49.1149   58.7736   65.8703 C   0  0  0  0  0  0  0  0  0  0  0  0
  -50.1550   58.6867   65.0671 C   0  0  0  0  0  0  0  0  0  0  0  0
  -50.8303   59.8039   64.3400 C   0  0  0  0  0  0  0  0  0  0  0  0
  -51.1776   59.3708   62.9147 C   0  0  0  0  0  0  0  0  0  0  0  0
  -50.2458   58.3351   62.3025 C   0  0  0  0  0  0  0  0  0  0  0  0
  -50.4715   58.0615   60.8206 C   0  0  0  0  0  0  0  0  0  0  0  0
  -49.4410   57.1164   60.2116 C   0  0  0  0  0  0  0  0  0  0  0  0
  -48.9878   57.5204   58.8177 C   0  0  0  0  0  0  0  0  0  0  0  0
  -48.0318   56.5522   58.1372 C   0  0  0  0  0  0  0  0  0  0  0  0
  -47.4788   57.0898   56.8533 C   0  0  0  0  0  0  0  0  0  0  0  0
  -40.9972   58.9104   64.1526 O   0  0  0  0  0  0  0  0  0  0  0  0
  -39.5631   59.0815   64.1211 C   0  0  0  0  0  0  0  0  0  0  0  0
  -39.1722   60.5417   64.2074 C   0  0  0  0  0  0  0  0  0  0  0  0
  -38.8644   60.9141   65.5576 O   0  0  0  0  0  0  0  0  0  0  0  0
  -38.0953   60.4092   65.8648 H   0  0  0  0  0  0  0  0  0  0  0  0
  -38.0036   60.8832   63.3128 C   0  0  0  0  0  0  0  0  0  0  0  0
  -37.7370   62.3065   63.2954 O   0  0  0  0  0  0  0  0  0  0  0  0
  -36.5254   63.1858   63.8742 P   0  0  0  0  0  0  0  0  0  0  0  0
  -36.5065   63.0308   65.3939 O   0  0  0  0  0  0  0  0  0  0  0  0
  -36.7743   64.6074   63.5493 O   0  0  0  0  0  0  0  0  0  0  0  0
  -37.6316   64.8771   63.9141 H   0  0  0  0  0  0  0  0  0  0  0  0
  -35.0784   62.6868   63.2724 O   0  0  0  0  0  0  0  0  0  0  0  0
  -33.8358   63.4403   63.3049 C   0  0  0  0  0  0  0  0  0  0  0  0
  -33.2669   63.4479   64.7022 C   0  0  0  0  0  0  0  0  0  0  0  0
  -33.0116   64.8093   65.3219 N   0  0  0  0  0  0  0  0  0  0  0  0
  -33.3717   65.8976   64.3622 C   0  0  0  0  0  0  0  0  0  0  0  0
  -31.5600   64.9172   65.6559 C   0  0  0  0  0  0  0  0  0  0  0  0
  -33.8241   64.9785   66.5740 C   0  0  0  0  0  0  0  0  0  0  0  0
 34 33  1  0  0  0
 34 35  1  0  0  0
 34 36  1  0  0  0
 34 37  1  0  0  0
 22 23  1  0  0  0
 22 25  1  0  0  0
 22 21  1  0  0  0
 23 24  1  0  0  0
 27 26  1  0  0  0
 27 28  2  0  0  0
 27 31  1  0  0  0
 27 29  1  0  0  0
 25 26  1  0  0  0
 32 33  1  0  0  0
 32 31  1  0  0  0
 29 30  1  0  0  0
 20 21  1  0  0  0
 20  2  1  0  0  0
  1  2  2  0  0  0
  2  3  1  0  0  0
  3  4  1  0  0  0
  4  5  1  0  0  0
  5  6  1  0  0  0
  6  7  1  0  0  0
  7  8  1  0  0  0
  8  9  1  0  0  0
  9 10  1  0  0  0
 10 11  2  0  0  0
 11 12  1  0  0  0
 12 13  1  0  0  0
 13 14  1  0  0  0
 14 15  1  0  0  0
 15 16  1  0  0  0
 16 17  1  0  0  0
 17 18  1  0  0  0
 18 19  1  0  0  0
M  CHG 1  28  -1
M  END
> <minimizedAffinity>
-7.96662

> <CNNscore>
0.5976434946

> <CNNaffinity>
6.1654748917

> <CNN_VS>
3.6847560406

> <CNNaffinity_variance>
0.2728938162

$$$$
/media/chris/experiments/cd1a-new-docking/inputs/ligands/4x6e_ligand.pdb


 37 36  0  0  0  0  0  0  0  0999 V2000
  -42.5053   58.4176   61.4847 O   0  0  0  0  0  0  0  0  0  0  0  0
  -42.0445   59.5318   61.5141 C   0  0  0  0  0  0  0  0  0  0  0  0
  -42.8249   60.7973   61.3315 C   0  0  0  0  0  0  0  0  0  0  0  0
  -43.2682   61.4235   62.6483 C   0  0  0  0  0  0  0  0  0  0  0  0
  -44.1746   60.5389   63.4871 C   0  0  0  0  0  0  0  0  0  0  0  0
  -45.5105   61.1818   63.8159 C   0  0  0  0  0  0  0  0  0  0  0  0
  -46.3801   60.3156   64.7109 C   0  0  0  0  0  0  0  0  0  0  0  0
  -46.7720   59.0162   64.0434 C   0  0  0  0  0  0  0  0  0  0  0  0
  -48.1254   58.4737   64.4553 C   0  0  0  0  0  0  0  0  0  0  0  0
  -49.1527   59.5174   64.6738 C   0  0  0  0  0  0  0  0  0  0  0  0
  -49.9730   60.0009   63.7638 C   0  0  0  0  0  0  0  0  0  0  0  0
  -50.0814   59.5841   62.3331 C   0  0  0  0  0  0  0  0  0  0  0  0
  -50.8859   58.2879   62.2217 C   0  0  0  0  0  0  0  0  0  0  0  0
  -50.8093   57.5868   60.8733 C   0  0  0  0  0  0  0  0  0  0  0  0
  -50.0562   58.3514   59.7915 C   0  0  0  0  0  0  0  0  0  0  0  0
  -49.3839   57.4481   58.7629 C   0  0  0  0  0  0  0  0  0  0  0  0
  -48.2682   56.5899   59.3378 C   0  0  0  0  0  0  0  0  0  0  0  0
  -47.5272   55.7239   58.3301 C   0  0  0  0  0  0  0  0  0  0  0  0
  -46.9864   56.5111   57.1762 C   0  0  0  0  0  0  0  0  0  0  0  0
  -40.7545   59.8059   61.7291 O   0  0  0  0  0  0  0  0  0  0  0  0
  -39.8753   59.8527   60.5838 C   0  0  0  0  0  0  0  0  0  0  0  0
  -38.4197   59.7715   60.9924 C   0  0  0  0  0  0  0  0  0  0  0  0
  -38.0263   60.9353   61.7321 O   0  0  0  0  0  0  0  0  0  0  0  0
  -38.5365   60.9828   62.5556 H   0  0  0  0  0  0  0  0  0  0  0  0
  -38.1128   58.5336   61.8022 C   0  0  0  0  0  0  0  0  0  0  0  0
  -36.6877   58.3445   61.9772 O   0  0  0  0  0  0  0  0  0  0  0  0
  -35.7196   58.5381   63.2426 P   0  0  0  0  0  0  0  0  0  0  0  0
  -34.2742   58.4483   62.7560 O   0  0  0  0  0  0  0  0  0  0  0  0
  -35.9635   57.4359   64.1987 O   0  0  0  0  0  0  0  0  0  0  0  0
  -35.8224   56.5853   63.7544 H   0  0  0  0  0  0  0  0  0  0  0  0
  -35.9484   60.0016   63.9573 O   0  0  0  0  0  0  0  0  0  0  0  0
  -34.9083   60.8500   64.5152 C   0  0  0  0  0  0  0  0  0  0  0  0
  -35.4388   61.6114   65.7049 C   0  0  0  0  0  0  0  0  0  0  0  0
  -35.0384   63.0714   65.8077 N   0  0  0  0  0  0  0  0  0  0  0  0
  -35.3487   63.7907   64.5343 C   0  0  0  0  0  0  0  0  0  0  0  0
  -33.5686   63.1465   66.0620 C   0  0  0  0  0  0  0  0  0  0  0  0
  -35.7730   63.7408   66.9340 C   0  0  0  0  0  0  0  0  0  0  0  0
 34 33  1  0  0  0
 34 35  1  0  0  0
 34 36  1  0  0  0
 34 37  1  0  0  0
 22 23  1  0  0  0
 22 25  1  0  0  0
 22 21  1  0  0  0
 23 24  1  0  0  0
 27 26  1  0  0  0
 27 28  2  0  0  0
 27 31  1  0  0  0
 27 29  1  0  0  0
 25 26  1  0  0  0
 32 33  1  0  0  0
 32 31  1  0  0  0
 29 30  1  0  0  0
 20 21  1  0  0  0
 20  2  1  0  0  0
  1  2  2  0  0  0
  2  3  1  0  0  0
  3  4  1  0  0  0
  4  5  1  0  0  0
  5  6  1  0  0  0
  6  7  1  0  0  0
  7  8  1  0  0  0
  8  9  1  0  0  0
  9 10  1  0  0  0
 10 11  2  0  0  0
 11 12  1  0  0  0
 12 13  1  0  0  0
 13 14  1  0  0  0
 14 15  1  0  0  0
 15 16  1  0  0  0
 16 17  1  0  0  0
 17 18  1  0  0  0
 18 19  1  0  0  0
M  CHG 1  28  -1
M  END
> <minimizedAffinity>
-7.96827

> <CNNscore>
0.5846738815

> <CNNaffinity>
6.4230928421

> <CNN_VS>
3.7554147243

> <CNNaffinity_variance>
0.2241259366

$$$$
