/media/chris/experiments/cd1a-new-docking/inputs/ligands/4x6e_ligand.pdb


 37 36  0  0  0  0  0  0  0  0999 V2000
  -42.7662   60.4981   63.9170 O   0  0  0  0  0  0  0  0  0  0  0  0
  -42.8329   59.9704   64.9995 C   0  0  0  0  0  0  0  0  0  0  0  0
  -44.1006   59.6019   65.7072 C   0  0  0  0  0  0  0  0  0  0  0  0
  -44.8454   58.4505   65.0424 C   0  0  0  0  0  0  0  0  0  0  0  0
  -46.0583   58.8754   64.2325 C   0  0  0  0  0  0  0  0  0  0  0  0
  -46.8703   59.9760   64.8923 C   0  0  0  0  0  0  0  0  0  0  0  0
  -47.8039   59.4566   65.9722 C   0  0  0  0  0  0  0  0  0  0  0  0
  -48.5301   58.2006   65.5450 C   0  0  0  0  0  0  0  0  0  0  0  0
  -50.0410   58.3146   65.5301 C   0  0  0  0  0  0  0  0  0  0  0  0
  -50.5409   59.6581   65.1596 C   0  0  0  0  0  0  0  0  0  0  0  0
  -50.9949   60.0179   63.9767 C   0  0  0  0  0  0  0  0  0  0  0  0
  -51.1459   59.1544   62.7667 C   0  0  0  0  0  0  0  0  0  0  0  0
  -49.9960   59.4095   61.7908 C   0  0  0  0  0  0  0  0  0  0  0  0
  -50.0994   58.6838   60.4574 C   0  0  0  0  0  0  0  0  0  0  0  0
  -49.9846   57.1664   60.5391 C   0  0  0  0  0  0  0  0  0  0  0  0
  -48.9092   56.5869   59.6261 C   0  0  0  0  0  0  0  0  0  0  0  0
  -48.5805   57.4677   58.4312 C   0  0  0  0  0  0  0  0  0  0  0  0
  -48.1831   56.7252   57.1642 C   0  0  0  0  0  0  0  0  0  0  0  0
  -46.9344   55.9156   57.3343 C   0  0  0  0  0  0  0  0  0  0  0  0
  -41.7711   59.6206   65.7314 O   0  0  0  0  0  0  0  0  0  0  0  0
  -40.7369   58.8422   65.0900 C   0  0  0  0  0  0  0  0  0  0  0  0
  -39.4641   59.6425   64.9119 C   0  0  0  0  0  0  0  0  0  0  0  0
  -39.7029   60.8250   64.1366 O   0  0  0  0  0  0  0  0  0  0  0  0
  -40.3218   61.4025   64.6102 H   0  0  0  0  0  0  0  0  0  0  0  0
  -38.8298   60.0243   66.2288 C   0  0  0  0  0  0  0  0  0  0  0  0
  -38.2740   61.3611   66.1910 O   0  0  0  0  0  0  0  0  0  0  0  0
  -36.8210   61.9162   65.7951 P   0  0  0  0  0  0  0  0  0  0  0  0
  -36.0416   60.7827   65.1306 O   0  0  0  0  0  0  0  0  0  0  0  0
  -36.1124   62.3129   67.0316 O   0  0  0  0  0  0  0  0  0  0  0  0
  -36.0646   61.5545   67.6344 H   0  0  0  0  0  0  0  0  0  0  0  0
  -36.9242   63.1763   64.7432 O   0  0  0  0  0  0  0  0  0  0  0  0
  -35.8927   63.5928   63.8075 C   0  0  0  0  0  0  0  0  0  0  0  0
  -34.7844   64.3096   64.5383 C   0  0  0  0  0  0  0  0  0  0  0  0
  -33.3851   63.7491   64.3634 N   0  0  0  0  0  0  0  0  0  0  0  0
  -33.4201   62.4988   63.5446 C   0  0  0  0  0  0  0  0  0  0  0  0
  -32.8262   63.4312   65.7114 C   0  0  0  0  0  0  0  0  0  0  0  0
  -32.4982   64.7511   63.6808 C   0  0  0  0  0  0  0  0  0  0  0  0
 34 33  1  0  0  0
 34 35  1  0  0  0
 34 36  1  0  0  0
 34 37  1  0  0  0
 22 23  1  0  0  0
 22 25  1  0  0  0
 22 21  1  0  0  0
 23 24  1  0  0  0
 27 26  1  0  0  0
 27 28  2  0  0  0
 27 31  1  0  0  0
 27 29  1  0  0  0
 25 26  1  0  0  0
 32 33  1  0  0  0
 32 31  1  0  0  0
 29 30  1  0  0  0
 20 21  1  0  0  0
 20  2  1  0  0  0
  1  2  2  0  0  0
  2  3  1  0  0  0
  3  4  1  0  0  0
  4  5  1  0  0  0
  5  6  1  0  0  0
  6  7  1  0  0  0
  7  8  1  0  0  0
  8  9  1  0  0  0
  9 10  1  0  0  0
 10 11  2  0  0  0
 11 12  1  0  0  0
 12 13  1  0  0  0
 13 14  1  0  0  0
 14 15  1  0  0  0
 15 16  1  0  0  0
 16 17  1  0  0  0
 17 18  1  0  0  0
 18 19  1  0  0  0
M  CHG 1  28  -1
M  END
> <minimizedAffinity>
-7.99417

> <CNNscore>
0.7961617112

> <CNNaffinity>
6.3514657021

> <CNN_VS>
5.0567936897

> <CNNaffinity_variance>
0.1472988278

$$$$
/media/chris/experiments/cd1a-new-docking/inputs/ligands/4x6e_ligand.pdb


 37 36  0  0  0  0  0  0  0  0999 V2000
  -42.4689   59.2911   67.2916 O   0  0  0  0  0  0  0  0  0  0  0  0
  -42.3897   58.4914   66.3922 C   0  0  0  0  0  0  0  0  0  0  0  0
  -43.1558   57.2072   66.3044 C   0  0  0  0  0  0  0  0  0  0  0  0
  -44.4956   57.3558   65.5934 C   0  0  0  0  0  0  0  0  0  0  0  0
  -45.6962   57.3897   66.5233 C   0  0  0  0  0  0  0  0  0  0  0  0
  -45.9342   58.7506   67.1538 C   0  0  0  0  0  0  0  0  0  0  0  0
  -45.9443   59.8800   66.1379 C   0  0  0  0  0  0  0  0  0  0  0  0
  -47.2224   59.9110   65.3297 C   0  0  0  0  0  0  0  0  0  0  0  0
  -48.4911   60.0132   66.1517 C   0  0  0  0  0  0  0  0  0  0  0  0
  -49.4487   58.9073   65.9232 C   0  0  0  0  0  0  0  0  0  0  0  0
  -50.5065   58.9465   65.1396 C   0  0  0  0  0  0  0  0  0  0  0  0
  -50.9534   60.0857   64.2822 C   0  0  0  0  0  0  0  0  0  0  0  0
  -50.5150   59.8587   62.8345 C   0  0  0  0  0  0  0  0  0  0  0  0
  -50.8927   58.5087   62.2429 C   0  0  0  0  0  0  0  0  0  0  0  0
  -49.7574   57.7716   61.5429 C   0  0  0  0  0  0  0  0  0  0  0  0
  -50.1258   57.2654   60.1522 C   0  0  0  0  0  0  0  0  0  0  0  0
  -48.9611   57.2577   59.1748 C   0  0  0  0  0  0  0  0  0  0  0  0
  -48.0134   56.0743   59.3001 C   0  0  0  0  0  0  0  0  0  0  0  0
  -47.1706   55.8747   58.0781 C   0  0  0  0  0  0  0  0  0  0  0  0
  -41.6053   58.6411   65.3207 O   0  0  0  0  0  0  0  0  0  0  0  0
  -40.2697   59.1509   65.5289 C   0  0  0  0  0  0  0  0  0  0  0  0
  -39.2470   58.3888   64.7131 C   0  0  0  0  0  0  0  0  0  0  0  0
  -39.2822   58.7904   63.3370 O   0  0  0  0  0  0  0  0  0  0  0  0
  -39.0406   59.7273   63.2673 H   0  0  0  0  0  0  0  0  0  0  0  0
  -37.8430   58.5484   65.2476 C   0  0  0  0  0  0  0  0  0  0  0  0
  -37.1161   59.5882   64.5492 O   0  0  0  0  0  0  0  0  0  0  0  0
  -37.1222   61.1875   64.6837 P   0  0  0  0  0  0  0  0  0  0  0  0
  -37.1336   61.5417   66.1697 O   0  0  0  0  0  0  0  0  0  0  0  0
  -38.3606   61.7102   64.0658 O   0  0  0  0  0  0  0  0  0  0  0  0
  -39.1311   61.3024   64.4911 H   0  0  0  0  0  0  0  0  0  0  0  0
  -35.7887   61.8550   63.9899 O   0  0  0  0  0  0  0  0  0  0  0  0
  -35.2694   63.1878   64.2486 C   0  0  0  0  0  0  0  0  0  0  0  0
  -33.9802   63.1030   65.0278 C   0  0  0  0  0  0  0  0  0  0  0  0
  -33.2514   64.4107   65.2749 N   0  0  0  0  0  0  0  0  0  0  0  0
  -33.7048   65.0290   66.5583 C   0  0  0  0  0  0  0  0  0  0  0  0
  -33.5554   65.3464   64.1512 C   0  0  0  0  0  0  0  0  0  0  0  0
  -31.7683   64.1820   65.3443 C   0  0  0  0  0  0  0  0  0  0  0  0
 34 33  1  0  0  0
 34 35  1  0  0  0
 34 36  1  0  0  0
 34 37  1  0  0  0
 22 23  1  0  0  0
 22 25  1  0  0  0
 22 21  1  0  0  0
 23 24  1  0  0  0
 27 26  1  0  0  0
 27 28  2  0  0  0
 27 31  1  0  0  0
 27 29  1  0  0  0
 25 26  1  0  0  0
 32 33  1  0  0  0
 32 31  1  0  0  0
 29 30  1  0  0  0
 20 21  1  0  0  0
 20  2  1  0  0  0
  1  2  2  0  0  0
  2  3  1  0  0  0
  3  4  1  0  0  0
  4  5  1  0  0  0
  5  6  1  0  0  0
  6  7  1  0  0  0
  7  8  1  0  0  0
  8  9  1  0  0  0
  9 10  1  0  0  0
 10 11  2  0  0  0
 11 12  1  0  0  0
 12 13  1  0  0  0
 13 14  1  0  0  0
 14 15  1  0  0  0
 15 16  1  0  0  0
 16 17  1  0  0  0
 17 18  1  0  0  0
 18 19  1  0  0  0
M  CHG 1  28  -1
M  END
> <minimizedAffinity>
-7.94301

> <CNNscore>
0.7710947990

> <CNNaffinity>
6.3339858055

> <CNN_VS>
4.8841032982

> <CNNaffinity_variance>
0.0428263359

$$$$
/media/chris/experiments/cd1a-new-docking/inputs/ligands/4x6e_ligand.pdb


 37 36  0  0  0  0  0  0  0  0999 V2000
  -41.7396   57.1412   63.0885 O   0  0  0  0  0  0  0  0  0  0  0  0
  -41.9518   57.2968   64.2655 C   0  0  0  0  0  0  0  0  0  0  0  0
  -42.8088   56.4104   65.1161 C   0  0  0  0  0  0  0  0  0  0  0  0
  -43.6602   57.1816   66.1176 C   0  0  0  0  0  0  0  0  0  0  0  0
  -45.0356   57.5683   65.6016 C   0  0  0  0  0  0  0  0  0  0  0  0
  -46.1643   57.1826   66.5415 C   0  0  0  0  0  0  0  0  0  0  0  0
  -47.5283   57.2161   65.8737 C   0  0  0  0  0  0  0  0  0  0  0  0
  -48.1521   58.5933   65.9158 C   0  0  0  0  0  0  0  0  0  0  0  0
  -49.6605   58.6118   65.7726 C   0  0  0  0  0  0  0  0  0  0  0  0
  -50.1763   59.7439   64.9700 C   0  0  0  0  0  0  0  0  0  0  0  0
  -50.6928   59.6659   63.7609 C   0  0  0  0  0  0  0  0  0  0  0  0
  -50.9113   58.4298   62.9503 C   0  0  0  0  0  0  0  0  0  0  0  0
  -50.4576   58.6591   61.5077 C   0  0  0  0  0  0  0  0  0  0  0  0
  -50.7965   57.5414   60.5323 C   0  0  0  0  0  0  0  0  0  0  0  0
  -49.6820   56.5281   60.3010 C   0  0  0  0  0  0  0  0  0  0  0  0
  -48.5793   57.0357   59.3778 C   0  0  0  0  0  0  0  0  0  0  0  0
  -47.5963   55.9583   58.9480 C   0  0  0  0  0  0  0  0  0  0  0  0
  -47.4598   55.7630   57.4454 C   0  0  0  0  0  0  0  0  0  0  0  0
  -47.4163   57.0580   56.6941 C   0  0  0  0  0  0  0  0  0  0  0  0
  -41.4366   58.2893   64.9970 O   0  0  0  0  0  0  0  0  0  0  0  0
  -40.9225   59.4448   64.2988 C   0  0  0  0  0  0  0  0  0  0  0  0
  -39.5255   59.8014   64.7606 C   0  0  0  0  0  0  0  0  0  0  0  0
  -39.5510   60.9070   65.6736 O   0  0  0  0  0  0  0  0  0  0  0  0
  -40.0441   60.6569   66.4706 H   0  0  0  0  0  0  0  0  0  0  0  0
  -38.8115   58.6354   65.4030 C   0  0  0  0  0  0  0  0  0  0  0  0
  -37.9032   57.9860   64.4808 O   0  0  0  0  0  0  0  0  0  0  0  0
  -36.5266   58.4607   63.8059 P   0  0  0  0  0  0  0  0  0  0  0  0
  -36.8525   59.1094   62.4617 O   0  0  0  0  0  0  0  0  0  0  0  0
  -35.6834   57.2700   63.5617 O   0  0  0  0  0  0  0  0  0  0  0  0
  -36.1673   56.6396   63.0056 H   0  0  0  0  0  0  0  0  0  0  0  0
  -35.7416   59.5575   64.7472 O   0  0  0  0  0  0  0  0  0  0  0  0
  -35.1249   60.7905   64.2864 C   0  0  0  0  0  0  0  0  0  0  0  0
  -34.5845   61.5728   65.4578 C   0  0  0  0  0  0  0  0  0  0  0  0
  -35.0588   63.0081   65.5899 N   0  0  0  0  0  0  0  0  0  0  0  0
  -34.7693   63.7728   64.3384 C   0  0  0  0  0  0  0  0  0  0  0  0
  -34.3339   63.6476   66.7284 C   0  0  0  0  0  0  0  0  0  0  0  0
  -36.5370   63.0520   65.8539 C   0  0  0  0  0  0  0  0  0  0  0  0
 34 33  1  0  0  0
 34 35  1  0  0  0
 34 36  1  0  0  0
 34 37  1  0  0  0
 22 23  1  0  0  0
 22 25  1  0  0  0
 22 21  1  0  0  0
 23 24  1  0  0  0
 27 26  1  0  0  0
 27 28  2  0  0  0
 27 31  1  0  0  0
 27 29  1  0  0  0
 25 26  1  0  0  0
 32 33  1  0  0  0
 32 31  1  0  0  0
 29 30  1  0  0  0
 20 21  1  0  0  0
 20  2  1  0  0  0
  1  2  2  0  0  0
  2  3  1  0  0  0
  3  4  1  0  0  0
  4  5  1  0  0  0
  5  6  1  0  0  0
  6  7  1  0  0  0
  7  8  1  0  0  0
  8  9  1  0  0  0
  9 10  1  0  0  0
 10 11  2  0  0  0
 11 12  1  0  0  0
 12 13  1  0  0  0
 13 14  1  0  0  0
 14 15  1  0  0  0
 15 16  1  0  0  0
 16 17  1  0  0  0
 17 18  1  0  0  0
 18 19  1  0  0  0
M  CHG 1  28  -1
M  END
> <minimizedAffinity>
-7.86044

> <CNNscore>
0.7173776627

> <CNNaffinity>
6.8455305099

> <CNN_VS>
4.9108304977

> <CNNaffinity_variance>
0.7340736389

$$$$
/media/chris/experiments/cd1a-new-docking/inputs/ligands/4x6e_ligand.pdb


 37 36  0  0  0  0  0  0  0  0999 V2000
  -41.2850   61.0151   66.2242 O   0  0  0  0  0  0  0  0  0  0  0  0
  -41.5155   59.8502   66.4351 C   0  0  0  0  0  0  0  0  0  0  0  0
  -42.6640   59.3261   67.2414 C   0  0  0  0  0  0  0  0  0  0  0  0
  -44.0125   59.5148   66.5567 C   0  0  0  0  0  0  0  0  0  0  0  0
  -44.2353   58.6121   65.3555 C   0  0  0  0  0  0  0  0  0  0  0  0
  -44.8250   57.2600   65.7165 C   0  0  0  0  0  0  0  0  0  0  0  0
  -45.9377   57.3555   66.7463 C   0  0  0  0  0  0  0  0  0  0  0  0
  -47.1529   56.5458   66.3521 C   0  0  0  0  0  0  0  0  0  0  0  0
  -48.3844   57.3665   66.0271 C   0  0  0  0  0  0  0  0  0  0  0  0
  -48.1579   58.8295   66.0504 C   0  0  0  0  0  0  0  0  0  0  0  0
  -49.0515   59.7573   65.7762 C   0  0  0  0  0  0  0  0  0  0  0  0
  -50.4889   59.5507   65.4240 C   0  0  0  0  0  0  0  0  0  0  0  0
  -50.6803   59.6545   63.9101 C   0  0  0  0  0  0  0  0  0  0  0  0
  -50.3952   58.3808   63.1280 C   0  0  0  0  0  0  0  0  0  0  0  0
  -51.0180   58.3251   61.7382 C   0  0  0  0  0  0  0  0  0  0  0  0
  -50.0378   58.6565   60.6177 C   0  0  0  0  0  0  0  0  0  0  0  0
  -50.0289   57.6365   59.4903 C   0  0  0  0  0  0  0  0  0  0  0  0
  -48.6923   57.4549   58.7867 C   0  0  0  0  0  0  0  0  0  0  0  0
  -48.0389   56.1470   59.1120 C   0  0  0  0  0  0  0  0  0  0  0  0
  -40.7771   58.8410   65.9638 O   0  0  0  0  0  0  0  0  0  0  0  0
  -40.4238   58.8608   64.5633 C   0  0  0  0  0  0  0  0  0  0  0  0
  -38.9789   59.2630   64.3568 C   0  0  0  0  0  0  0  0  0  0  0  0
  -38.8371   60.6899   64.3483 O   0  0  0  0  0  0  0  0  0  0  0  0
  -39.0964   61.0457   65.2126 H   0  0  0  0  0  0  0  0  0  0  0  0
  -38.0578   58.6725   65.3985 C   0  0  0  0  0  0  0  0  0  0  0  0
  -36.9242   58.0017   64.7967 O   0  0  0  0  0  0  0  0  0  0  0  0
  -35.6744   58.5433   63.9477 P   0  0  0  0  0  0  0  0  0  0  0  0
  -36.1969   59.0709   62.6125 O   0  0  0  0  0  0  0  0  0  0  0  0
  -34.7576   57.4133   63.6809 O   0  0  0  0  0  0  0  0  0  0  0  0
  -35.2384   56.7089   63.2190 H   0  0  0  0  0  0  0  0  0  0  0  0
  -34.8970   59.7624   64.7316 O   0  0  0  0  0  0  0  0  0  0  0  0
  -34.9264   61.1683   64.3637 C   0  0  0  0  0  0  0  0  0  0  0  0
  -34.7692   62.0319   65.5907 C   0  0  0  0  0  0  0  0  0  0  0  0
  -35.3539   63.4300   65.5139 N   0  0  0  0  0  0  0  0  0  0  0  0
  -36.4360   63.4896   64.4841 C   0  0  0  0  0  0  0  0  0  0  0  0
  -34.2678   64.3815   65.1324 C   0  0  0  0  0  0  0  0  0  0  0  0
  -35.9262   63.8351   66.8425 C   0  0  0  0  0  0  0  0  0  0  0  0
 34 33  1  0  0  0
 34 35  1  0  0  0
 34 36  1  0  0  0
 34 37  1  0  0  0
 22 23  1  0  0  0
 22 25  1  0  0  0
 22 21  1  0  0  0
 23 24  1  0  0  0
 27 26  1  0  0  0
 27 28  2  0  0  0
 27 31  1  0  0  0
 27 29  1  0  0  0
 25 26  1  0  0  0
 32 33  1  0  0  0
 32 31  1  0  0  0
 29 30  1  0  0  0
 20 21  1  0  0  0
 20  2  1  0  0  0
  1  2  2  0  0  0
  2  3  1  0  0  0
  3  4  1  0  0  0
  4  5  1  0  0  0
  5  6  1  0  0  0
  6  7  1  0  0  0
  7  8  1  0  0  0
  8  9  1  0  0  0
  9 10  1  0  0  0
 10 11  2  0  0  0
 11 12  1  0  0  0
 12 13  1  0  0  0
 13 14  1  0  0  0
 14 15  1  0  0  0
 15 16  1  0  0  0
 16 17  1  0  0  0
 17 18  1  0  0  0
 18 19  1  0  0  0
M  CHG 1  28  -1
M  END
> <minimizedAffinity>
-7.70002

> <CNNscore>
0.6482390165

> <CNNaffinity>
6.4958992004

> <CNN_VS>
4.2108955383

> <CNNaffinity_variance>
0.2052993029

$$$$
/media/chris/experiments/cd1a-new-docking/inputs/ligands/4x6e_ligand.pdb


 37 36  0  0  0  0  0  0  0  0999 V2000
  -40.4071   57.2492   60.3980 O   0  0  0  0  0  0  0  0  0  0  0  0
  -40.2159   56.8187   61.5084 C   0  0  0  0  0  0  0  0  0  0  0  0
  -41.2559   56.1926   62.3860 C   0  0  0  0  0  0  0  0  0  0  0  0
  -41.2961   56.7898   63.7875 C   0  0  0  0  0  0  0  0  0  0  0  0
  -42.6940   56.9437   64.3616 C   0  0  0  0  0  0  0  0  0  0  0  0
  -42.7139   57.0925   65.8727 C   0  0  0  0  0  0  0  0  0  0  0  0
  -43.7719   58.0689   66.3575 C   0  0  0  0  0  0  0  0  0  0  0  0
  -45.1283   57.4161   66.5045 C   0  0  0  0  0  0  0  0  0  0  0  0
  -46.2308   58.0504   65.6809 C   0  0  0  0  0  0  0  0  0  0  0  0
  -47.5278   57.3408   65.7608 C   0  0  0  0  0  0  0  0  0  0  0  0
  -48.7125   57.9020   65.8884 C   0  0  0  0  0  0  0  0  0  0  0  0
  -49.0185   59.3636   65.9395 C   0  0  0  0  0  0  0  0  0  0  0  0
  -50.2725   59.6682   65.1184 C   0  0  0  0  0  0  0  0  0  0  0  0
  -50.6246   58.6349   64.0584 C   0  0  0  0  0  0  0  0  0  0  0  0
  -50.6994   59.1725   62.6344 C   0  0  0  0  0  0  0  0  0  0  0  0
  -50.4925   58.1023   61.5676 C   0  0  0  0  0  0  0  0  0  0  0  0
  -49.8267   58.6194   60.3024 C   0  0  0  0  0  0  0  0  0  0  0  0
  -49.5721   57.5744   59.2264 C   0  0  0  0  0  0  0  0  0  0  0  0
  -48.6652   56.4756   59.6886 C   0  0  0  0  0  0  0  0  0  0  0  0
  -39.0293   56.8257   62.1228 O   0  0  0  0  0  0  0  0  0  0  0  0
  -38.1283   57.9180   61.8365 C   0  0  0  0  0  0  0  0  0  0  0  0
  -37.1518   58.1491   62.9702 C   0  0  0  0  0  0  0  0  0  0  0  0
  -36.5585   59.4517   62.8820 O   0  0  0  0  0  0  0  0  0  0  0  0
  -37.2476   60.1278   62.9761 H   0  0  0  0  0  0  0  0  0  0  0  0
  -37.7894   57.9780   64.3290 C   0  0  0  0  0  0  0  0  0  0  0  0
  -37.7364   59.1989   65.1061 O   0  0  0  0  0  0  0  0  0  0  0  0
  -38.8499   60.2947   65.4737 P   0  0  0  0  0  0  0  0  0  0  0  0
  -38.1847   61.3917   66.3034 O   0  0  0  0  0  0  0  0  0  0  0  0
  -39.8953   59.6498   66.2981 O   0  0  0  0  0  0  0  0  0  0  0  0
  -39.4893   59.2589   67.0875 H   0  0  0  0  0  0  0  0  0  0  0  0
  -39.4975   60.9717   64.1219 O   0  0  0  0  0  0  0  0  0  0  0  0
  -40.5606   60.4039   63.3093 C   0  0  0  0  0  0  0  0  0  0  0  0
  -41.8782   61.0589   63.6426 C   0  0  0  0  0  0  0  0  0  0  0  0
  -43.0238   60.8029   62.6811 N   0  0  0  0  0  0  0  0  0  0  0  0
  -42.6427   59.7628   61.6770 C   0  0  0  0  0  0  0  0  0  0  0  0
  -43.3403   62.0752   61.9659 C   0  0  0  0  0  0  0  0  0  0  0  0
  -44.2416   60.3346   63.4257 C   0  0  0  0  0  0  0  0  0  0  0  0
 34 33  1  0  0  0
 34 35  1  0  0  0
 34 36  1  0  0  0
 34 37  1  0  0  0
 22 23  1  0  0  0
 22 25  1  0  0  0
 22 21  1  0  0  0
 23 24  1  0  0  0
 27 26  1  0  0  0
 27 28  2  0  0  0
 27 31  1  0  0  0
 27 29  1  0  0  0
 25 26  1  0  0  0
 32 33  1  0  0  0
 32 31  1  0  0  0
 29 30  1  0  0  0
 20 21  1  0  0  0
 20  2  1  0  0  0
  1  2  2  0  0  0
  2  3  1  0  0  0
  3  4  1  0  0  0
  4  5  1  0  0  0
  5  6  1  0  0  0
  6  7  1  0  0  0
  7  8  1  0  0  0
  8  9  1  0  0  0
  9 10  1  0  0  0
 10 11  2  0  0  0
 11 12  1  0  0  0
 12 13  1  0  0  0
 13 14  1  0  0  0
 14 15  1  0  0  0
 15 16  1  0  0  0
 16 17  1  0  0  0
 17 18  1  0  0  0
 18 19  1  0  0  0
M  CHG 1  28  -1
M  END
> <minimizedAffinity>
-7.50253

> <CNNscore>
0.6225774884

> <CNNaffinity>
7.0282273293

> <CNN_VS>
4.3756160736

> <CNNaffinity_variance>
0.3853470087

$$$$
/media/chris/experiments/cd1a-new-docking/inputs/ligands/4x6e_ligand.pdb


 37 36  0  0  0  0  0  0  0  0999 V2000
  -41.1986   60.9413   64.6455 O   0  0  0  0  0  0  0  0  0  0  0  0
  -41.7110   60.0768   63.9785 C   0  0  0  0  0  0  0  0  0  0  0  0
  -42.8080   59.1651   64.4358 C   0  0  0  0  0  0  0  0  0  0  0  0
  -44.0387   59.2109   63.5382 C   0  0  0  0  0  0  0  0  0  0  0  0
  -45.3599   59.1451   64.2851 C   0  0  0  0  0  0  0  0  0  0  0  0
  -45.3575   58.1482   65.4306 C   0  0  0  0  0  0  0  0  0  0  0  0
  -46.4675   58.3999   66.4367 C   0  0  0  0  0  0  0  0  0  0  0  0
  -47.8352   58.4024   65.7909 C   0  0  0  0  0  0  0  0  0  0  0  0
  -48.6572   59.6487   66.0496 C   0  0  0  0  0  0  0  0  0  0  0  0
  -50.1103   59.4695   65.8288 C   0  0  0  0  0  0  0  0  0  0  0  0
  -50.7645   59.7352   64.7170 C   0  0  0  0  0  0  0  0  0  0  0  0
  -50.1923   60.2320   63.4292 C   0  0  0  0  0  0  0  0  0  0  0  0
  -50.8418   59.5067   62.2496 C   0  0  0  0  0  0  0  0  0  0  0  0
  -50.4971   58.0301   62.1223 C   0  0  0  0  0  0  0  0  0  0  0  0
  -50.7554   57.4243   60.7481 C   0  0  0  0  0  0  0  0  0  0  0  0
  -50.1595   58.2362   59.6028 C   0  0  0  0  0  0  0  0  0  0  0  0
  -49.0855   57.4960   58.8214 C   0  0  0  0  0  0  0  0  0  0  0  0
  -48.4320   56.3334   59.5534 C   0  0  0  0  0  0  0  0  0  0  0  0
  -47.2832   55.7431   58.7949 C   0  0  0  0  0  0  0  0  0  0  0  0
  -41.3796   59.8095   62.7119 O   0  0  0  0  0  0  0  0  0  0  0  0
  -40.3085   60.5765   62.1190 C   0  0  0  0  0  0  0  0  0  0  0  0
  -39.1564   59.6914   61.6931 C   0  0  0  0  0  0  0  0  0  0  0  0
  -38.4538   60.2600   60.5798 O   0  0  0  0  0  0  0  0  0  0  0  0
  -38.0614   61.1070   60.8435 H   0  0  0  0  0  0  0  0  0  0  0  0
  -38.1838   59.4238   62.8177 C   0  0  0  0  0  0  0  0  0  0  0  0
  -37.3230   60.5613   63.0672 O   0  0  0  0  0  0  0  0  0  0  0  0
  -37.2141   61.5840   64.2993 P   0  0  0  0  0  0  0  0  0  0  0  0
  -35.9286   61.2745   65.0645 O   0  0  0  0  0  0  0  0  0  0  0  0
  -38.3645   61.3620   65.2025 O   0  0  0  0  0  0  0  0  0  0  0  0
  -38.3739   60.4364   65.4924 H   0  0  0  0  0  0  0  0  0  0  0  0
  -37.1609   63.1448   63.7832 O   0  0  0  0  0  0  0  0  0  0  0  0
  -36.3172   64.1952   64.3288 C   0  0  0  0  0  0  0  0  0  0  0  0
  -35.0051   64.2488   63.5860 C   0  0  0  0  0  0  0  0  0  0  0  0
  -33.7710   64.5571   64.4133 N   0  0  0  0  0  0  0  0  0  0  0  0
  -34.0538   64.3633   65.8684 C   0  0  0  0  0  0  0  0  0  0  0  0
  -33.3829   65.9802   64.1795 C   0  0  0  0  0  0  0  0  0  0  0  0
  -32.6335   63.6597   64.0167 C   0  0  0  0  0  0  0  0  0  0  0  0
 34 33  1  0  0  0
 34 35  1  0  0  0
 34 36  1  0  0  0
 34 37  1  0  0  0
 22 23  1  0  0  0
 22 25  1  0  0  0
 22 21  1  0  0  0
 23 24  1  0  0  0
 27 26  1  0  0  0
 27 28  2  0  0  0
 27 31  1  0  0  0
 27 29  1  0  0  0
 25 26  1  0  0  0
 32 33  1  0  0  0
 32 31  1  0  0  0
 29 30  1  0  0  0
 20 21  1  0  0  0
 20  2  1  0  0  0
  1  2  2  0  0  0
  2  3  1  0  0  0
  3  4  1  0  0  0
  4  5  1  0  0  0
  5  6  1  0  0  0
  6  7  1  0  0  0
  7  8  1  0  0  0
  8  9  1  0  0  0
  9 10  1  0  0  0
 10 11  2  0  0  0
 11 12  1  0  0  0
 12 13  1  0  0  0
 13 14  1  0  0  0
 14 15  1  0  0  0
 15 16  1  0  0  0
 16 17  1  0  0  0
 17 18  1  0  0  0
 18 19  1  0  0  0
M  CHG 1  28  -1
M  END
> <minimizedAffinity>
-7.76581

> <CNNscore>
0.6020500064

> <CNNaffinity>
6.2607035637

> <CNN_VS>
3.7692565918

> <CNNaffinity_variance>
0.2921571136

$$$$
/media/chris/experiments/cd1a-new-docking/inputs/ligands/4x6e_ligand.pdb


 37 36  0  0  0  0  0  0  0  0999 V2000
  -38.0445   59.1104   65.7564 O   0  0  0  0  0  0  0  0  0  0  0  0
  -38.6352   60.1490   65.9207 C   0  0  0  0  0  0  0  0  0  0  0  0
  -40.1097   60.2807   66.1492 C   0  0  0  0  0  0  0  0  0  0  0  0
  -40.8917   59.0351   65.7499 C   0  0  0  0  0  0  0  0  0  0  0  0
  -41.9562   58.6180   66.7501 C   0  0  0  0  0  0  0  0  0  0  0  0
  -42.9687   59.7104   67.0460 C   0  0  0  0  0  0  0  0  0  0  0  0
  -44.3444   59.4131   66.4743 C   0  0  0  0  0  0  0  0  0  0  0  0
  -44.3112   59.2214   64.9743 C   0  0  0  0  0  0  0  0  0  0  0  0
  -45.6021   59.5691   64.2611 C   0  0  0  0  0  0  0  0  0  0  0  0
  -46.7714   58.7805   64.7116 C   0  0  0  0  0  0  0  0  0  0  0  0
  -48.0324   59.1547   64.6431 C   0  0  0  0  0  0  0  0  0  0  0  0
  -48.5673   60.4248   64.0658 C   0  0  0  0  0  0  0  0  0  0  0  0
  -49.6047   60.1162   62.9850 C   0  0  0  0  0  0  0  0  0  0  0  0
  -49.6251   58.6764   62.4930 C   0  0  0  0  0  0  0  0  0  0  0  0
  -50.9663   58.2008   61.9478 C   0  0  0  0  0  0  0  0  0  0  0  0
  -50.8741   57.5847   60.5558 C   0  0  0  0  0  0  0  0  0  0  0  0
  -49.8466   58.2539   59.6567 C   0  0  0  0  0  0  0  0  0  0  0  0
  -49.0168   57.3092   58.8003 C   0  0  0  0  0  0  0  0  0  0  0  0
  -48.3877   56.2071   59.5959 C   0  0  0  0  0  0  0  0  0  0  0  0
  -38.0514   61.3510   65.9356 O   0  0  0  0  0  0  0  0  0  0  0  0
  -36.6204   61.4031   66.1262 C   0  0  0  0  0  0  0  0  0  0  0  0
  -36.1728   62.7576   66.6335 C   0  0  0  0  0  0  0  0  0  0  0  0
  -36.1181   62.7791   68.0663 O   0  0  0  0  0  0  0  0  0  0  0  0
  -35.4546   62.1419   68.3741 H   0  0  0  0  0  0  0  0  0  0  0  0
  -34.8330   63.1733   66.0730 C   0  0  0  0  0  0  0  0  0  0  0  0
  -34.9394   63.6213   64.6999 O   0  0  0  0  0  0  0  0  0  0  0  0
  -33.8811   63.6699   63.4943 P   0  0  0  0  0  0  0  0  0  0  0  0
  -33.1310   64.9986   63.5707 O   0  0  0  0  0  0  0  0  0  0  0  0
  -34.6196   63.6193   62.2134 O   0  0  0  0  0  0  0  0  0  0  0  0
  -35.2533   64.3527   62.1763 H   0  0  0  0  0  0  0  0  0  0  0  0
  -32.7935   62.4406   63.5981 O   0  0  0  0  0  0  0  0  0  0  0  0
  -32.9655   61.1019   63.0584 C   0  0  0  0  0  0  0  0  0  0  0  0
  -34.1687   60.4388   63.6820 C   0  0  0  0  0  0  0  0  0  0  0  0
  -34.2614   58.9311   63.5378 N   0  0  0  0  0  0  0  0  0  0  0  0
  -35.5960   58.5382   62.9904 C   0  0  0  0  0  0  0  0  0  0  0  0
  -34.0876   58.3110   64.8853 C   0  0  0  0  0  0  0  0  0  0  0  0
  -33.1903   58.4236   62.6148 C   0  0  0  0  0  0  0  0  0  0  0  0
 34 33  1  0  0  0
 34 35  1  0  0  0
 34 36  1  0  0  0
 34 37  1  0  0  0
 22 23  1  0  0  0
 22 25  1  0  0  0
 22 21  1  0  0  0
 23 24  1  0  0  0
 27 26  1  0  0  0
 27 28  2  0  0  0
 27 31  1  0  0  0
 27 29  1  0  0  0
 25 26  1  0  0  0
 32 33  1  0  0  0
 32 31  1  0  0  0
 29 30  1  0  0  0
 20 21  1  0  0  0
 20  2  1  0  0  0
  1  2  2  0  0  0
  2  3  1  0  0  0
  3  4  1  0  0  0
  4  5  1  0  0  0
  5  6  1  0  0  0
  6  7  1  0  0  0
  7  8  1  0  0  0
  8  9  1  0  0  0
  9 10  1  0  0  0
 10 11  2  0  0  0
 11 12  1  0  0  0
 12 13  1  0  0  0
 13 14  1  0  0  0
 14 15  1  0  0  0
 15 16  1  0  0  0
 16 17  1  0  0  0
 17 18  1  0  0  0
 18 19  1  0  0  0
M  CHG 1  28  -1
M  END
> <minimizedAffinity>
-7.87025

> <CNNscore>
0.5957253575

> <CNNaffinity>
6.2453656197

> <CNN_VS>
3.7205226421

> <CNNaffinity_variance>
0.2056680173

$$$$
/media/chris/experiments/cd1a-new-docking/inputs/ligands/4x6e_ligand.pdb


 37 36  0  0  0  0  0  0  0  0999 V2000
  -40.4742   58.7130   65.7948 O   0  0  0  0  0  0  0  0  0  0  0  0
  -40.7295   59.8366   66.1511 C   0  0  0  0  0  0  0  0  0  0  0  0
  -42.1001   60.3593   66.4543 C   0  0  0  0  0  0  0  0  0  0  0  0
  -43.0103   59.3186   67.0954 C   0  0  0  0  0  0  0  0  0  0  0  0
  -44.0303   58.7114   66.1476 C   0  0  0  0  0  0  0  0  0  0  0  0
  -45.3294   59.4946   66.0752 C   0  0  0  0  0  0  0  0  0  0  0  0
  -45.6370   60.0028   64.6771 C   0  0  0  0  0  0  0  0  0  0  0  0
  -47.0181   59.5977   64.2122 C   0  0  0  0  0  0  0  0  0  0  0  0
  -48.1332   59.9057   65.1908 C   0  0  0  0  0  0  0  0  0  0  0  0
  -49.1257   58.8168   65.3367 C   0  0  0  0  0  0  0  0  0  0  0  0
  -50.2490   58.6952   64.6598 C   0  0  0  0  0  0  0  0  0  0  0  0
  -50.7520   59.5927   63.5763 C   0  0  0  0  0  0  0  0  0  0  0  0
  -51.1590   58.7669   62.3549 C   0  0  0  0  0  0  0  0  0  0  0  0
  -50.1395   58.7262   61.2261 C   0  0  0  0  0  0  0  0  0  0  0  0
  -49.5280   57.3561   60.9592 C   0  0  0  0  0  0  0  0  0  0  0  0
  -49.1723   57.1227   59.4946 C   0  0  0  0  0  0  0  0  0  0  0  0
  -47.9495   56.2416   59.2944 C   0  0  0  0  0  0  0  0  0  0  0  0
  -47.6587   55.8484   57.8537 C   0  0  0  0  0  0  0  0  0  0  0  0
  -47.4795   57.0327   56.9545 C   0  0  0  0  0  0  0  0  0  0  0  0
  -39.8134   60.7904   66.3426 O   0  0  0  0  0  0  0  0  0  0  0  0
  -38.4253   60.4409   66.1479 C   0  0  0  0  0  0  0  0  0  0  0  0
  -37.7786   61.2943   65.0775 C   0  0  0  0  0  0  0  0  0  0  0  0
  -37.2219   62.4908   65.6388 O   0  0  0  0  0  0  0  0  0  0  0  0
  -36.5163   62.2576   66.2622 H   0  0  0  0  0  0  0  0  0  0  0  0
  -36.7078   60.5525   64.3124 C   0  0  0  0  0  0  0  0  0  0  0  0
  -37.2611   59.4720   63.5227 O   0  0  0  0  0  0  0  0  0  0  0  0
  -36.9679   57.8943   63.4947 P   0  0  0  0  0  0  0  0  0  0  0  0
  -36.8276   57.4091   64.9365 O   0  0  0  0  0  0  0  0  0  0  0  0
  -35.6860   57.6631   62.7935 O   0  0  0  0  0  0  0  0  0  0  0  0
  -34.9808   58.1604   63.2364 H   0  0  0  0  0  0  0  0  0  0  0  0
  -38.1931   57.0670   62.7739 O   0  0  0  0  0  0  0  0  0  0  0  0
  -38.9087   57.4749   61.5762 C   0  0  0  0  0  0  0  0  0  0  0  0
  -40.2099   58.1419   61.9478 C   0  0  0  0  0  0  0  0  0  0  0  0
  -40.3831   59.5825   61.5039 N   0  0  0  0  0  0  0  0  0  0  0  0
  -41.6025   59.7249   60.6508 C   0  0  0  0  0  0  0  0  0  0  0  0
  -39.1845   59.9844   60.7086 C   0  0  0  0  0  0  0  0  0  0  0  0
  -40.5162   60.4882   62.6950 C   0  0  0  0  0  0  0  0  0  0  0  0
 34 33  1  0  0  0
 34 35  1  0  0  0
 34 36  1  0  0  0
 34 37  1  0  0  0
 22 23  1  0  0  0
 22 25  1  0  0  0
 22 21  1  0  0  0
 23 24  1  0  0  0
 27 26  1  0  0  0
 27 28  2  0  0  0
 27 31  1  0  0  0
 27 29  1  0  0  0
 25 26  1  0  0  0
 32 33  1  0  0  0
 32 31  1  0  0  0
 29 30  1  0  0  0
 20 21  1  0  0  0
 20  2  1  0  0  0
  1  2  2  0  0  0
  2  3  1  0  0  0
  3  4  1  0  0  0
  4  5  1  0  0  0
  5  6  1  0  0  0
  6  7  1  0  0  0
  7  8  1  0  0  0
  8  9  1  0  0  0
  9 10  1  0  0  0
 10 11  2  0  0  0
 11 12  1  0  0  0
 12 13  1  0  0  0
 13 14  1  0  0  0
 14 15  1  0  0  0
 15 16  1  0  0  0
 16 17  1  0  0  0
 17 18  1  0  0  0
 18 19  1  0  0  0
M  CHG 1  28  -1
M  END
> <minimizedAffinity>
-7.96269

> <CNNscore>
0.5897273421

> <CNNaffinity>
6.8180961609

> <CNN_VS>
4.0208177567

> <CNNaffinity_variance>
0.2394659072

$$$$
/media/chris/experiments/cd1a-new-docking/inputs/ligands/4x6e_ligand.pdb


 37 36  0  0  0  0  0  0  0  0999 V2000
  -41.5029   57.1385   62.4525 O   0  0  0  0  0  0  0  0  0  0  0  0
  -41.9318   58.1766   62.8919 C   0  0  0  0  0  0  0  0  0  0  0  0
  -43.3462   58.6531   62.7645 C   0  0  0  0  0  0  0  0  0  0  0  0
  -44.0968   58.6641   64.0908 C   0  0  0  0  0  0  0  0  0  0  0  0
  -44.7516   59.9928   64.4274 C   0  0  0  0  0  0  0  0  0  0  0  0
  -46.2626   59.9772   64.2771 C   0  0  0  0  0  0  0  0  0  0  0  0
  -46.9908   60.1363   65.6008 C   0  0  0  0  0  0  0  0  0  0  0  0
  -47.2338   58.8085   66.2832 C   0  0  0  0  0  0  0  0  0  0  0  0
  -48.2253   57.9048   65.5789 C   0  0  0  0  0  0  0  0  0  0  0  0
  -49.6423   58.2591   65.8212 C   0  0  0  0  0  0  0  0  0  0  0  0
  -50.4208   58.9432   65.0084 C   0  0  0  0  0  0  0  0  0  0  0  0
  -50.0699   59.4754   63.6570 C   0  0  0  0  0  0  0  0  0  0  0  0
  -49.8629   58.3218   62.6742 C   0  0  0  0  0  0  0  0  0  0  0  0
  -51.0732   57.9645   61.8240 C   0  0  0  0  0  0  0  0  0  0  0  0
  -50.7526   57.5142   60.4038 C   0  0  0  0  0  0  0  0  0  0  0  0
  -49.6089   58.2923   59.7617 C   0  0  0  0  0  0  0  0  0  0  0  0
  -48.9119   57.5411   58.6384 C   0  0  0  0  0  0  0  0  0  0  0  0
  -48.0398   56.3746   59.0778 C   0  0  0  0  0  0  0  0  0  0  0  0
  -47.2996   55.7431   57.9391 C   0  0  0  0  0  0  0  0  0  0  0  0
  -41.2013   59.0611   63.5774 O   0  0  0  0  0  0  0  0  0  0  0  0
  -40.0668   58.5657   64.3220 C   0  0  0  0  0  0  0  0  0  0  0  0
  -38.7602   58.8788   63.6243 C   0  0  0  0  0  0  0  0  0  0  0  0
  -38.3416   57.7840   62.7980 O   0  0  0  0  0  0  0  0  0  0  0  0
  -38.9956   57.6402   62.0963 H   0  0  0  0  0  0  0  0  0  0  0  0
  -38.8341   60.1373   62.7918 C   0  0  0  0  0  0  0  0  0  0  0  0
  -38.6667   61.3277   63.5994 O   0  0  0  0  0  0  0  0  0  0  0  0
  -37.3663   62.0514   64.2003 P   0  0  0  0  0  0  0  0  0  0  0  0
  -37.4730   62.0369   65.7242 O   0  0  0  0  0  0  0  0  0  0  0  0
  -37.3532   63.4582   63.7428 O   0  0  0  0  0  0  0  0  0  0  0  0
  -38.1756   63.8944   64.0150 H   0  0  0  0  0  0  0  0  0  0  0  0
  -35.9862   61.2736   63.7582 O   0  0  0  0  0  0  0  0  0  0  0  0
  -34.7712   61.1759   64.5502 C   0  0  0  0  0  0  0  0  0  0  0  0
  -33.7408   62.1566   64.0476 C   0  0  0  0  0  0  0  0  0  0  0  0
  -33.4056   63.3166   64.9665 N   0  0  0  0  0  0  0  0  0  0  0  0
  -34.2718   64.4958   64.6592 C   0  0  0  0  0  0  0  0  0  0  0  0
  -31.9766   63.6957   64.7550 C   0  0  0  0  0  0  0  0  0  0  0  0
  -33.6094   62.9265   66.4028 C   0  0  0  0  0  0  0  0  0  0  0  0
 34 33  1  0  0  0
 34 35  1  0  0  0
 34 36  1  0  0  0
 34 37  1  0  0  0
 22 23  1  0  0  0
 22 25  1  0  0  0
 22 21  1  0  0  0
 23 24  1  0  0  0
 27 26  1  0  0  0
 27 28  2  0  0  0
 27 31  1  0  0  0
 27 29  1  0  0  0
 25 26  1  0  0  0
 32 33  1  0  0  0
 32 31  1  0  0  0
 29 30  1  0  0  0
 20 21  1  0  0  0
 20  2  1  0  0  0
  1  2  2  0  0  0
  2  3  1  0  0  0
  3  4  1  0  0  0
  4  5  1  0  0  0
  5  6  1  0  0  0
  6  7  1  0  0  0
  7  8  1  0  0  0
  8  9  1  0  0  0
  9 10  1  0  0  0
 10 11  2  0  0  0
 11 12  1  0  0  0
 12 13  1  0  0  0
 13 14  1  0  0  0
 14 15  1  0  0  0
 15 16  1  0  0  0
 16 17  1  0  0  0
 17 18  1  0  0  0
 18 19  1  0  0  0
M  CHG 1  28  -1
M  END
> <minimizedAffinity>
-7.85543

> <CNNscore>
0.5335001945

> <CNNaffinity>
6.2561922073

> <CNN_VS>
3.3376798630

> <CNNaffinity_variance>
0.1804861128

$$$$
