/media/chris/experiments/cd1a-new-docking/inputs/ligands/4x6e_ligand.pdb


 37 36  0  0  0  0  0  0  0  0999 V2000
  -41.1333   56.6545   64.4949 O   0  0  0  0  0  0  0  0  0  0  0  0
  -40.7538   57.7339   64.8765 C   0  0  0  0  0  0  0  0  0  0  0  0
  -41.4837   58.6180   65.8406 C   0  0  0  0  0  0  0  0  0  0  0  0
  -42.6145   57.9035   66.5710 C   0  0  0  0  0  0  0  0  0  0  0  0
  -43.9979   58.1882   66.0118 C   0  0  0  0  0  0  0  0  0  0  0  0
  -44.2060   59.6417   65.6247 C   0  0  0  0  0  0  0  0  0  0  0  0
  -45.6566   59.9705   65.3165 C   0  0  0  0  0  0  0  0  0  0  0  0
  -46.6136   59.2742   66.2583 C   0  0  0  0  0  0  0  0  0  0  0  0
  -48.0703   59.6490   66.0748 C   0  0  0  0  0  0  0  0  0  0  0  0
  -48.9393   58.5171   65.6804 C   0  0  0  0  0  0  0  0  0  0  0  0
  -50.1084   58.6090   65.0807 C   0  0  0  0  0  0  0  0  0  0  0  0
  -50.7969   59.8563   64.6307 C   0  0  0  0  0  0  0  0  0  0  0  0
  -51.1778   59.7441   63.1536 C   0  0  0  0  0  0  0  0  0  0  0  0
  -50.1980   58.9692   62.2846 C   0  0  0  0  0  0  0  0  0  0  0  0
  -50.8228   57.8741   61.4287 C   0  0  0  0  0  0  0  0  0  0  0  0
  -50.0418   57.5781   60.1527 C   0  0  0  0  0  0  0  0  0  0  0  0
  -49.1087   56.3832   60.2690 C   0  0  0  0  0  0  0  0  0  0  0  0
  -48.1976   56.1494   59.0735 C   0  0  0  0  0  0  0  0  0  0  0  0
  -48.3086   57.2282   58.0403 C   0  0  0  0  0  0  0  0  0  0  0  0
  -39.6047   58.3025   64.4998 O   0  0  0  0  0  0  0  0  0  0  0  0
  -38.4158   57.9852   65.2565 C   0  0  0  0  0  0  0  0  0  0  0  0
  -37.2064   57.8308   64.3590 C   0  0  0  0  0  0  0  0  0  0  0  0
  -37.5977   57.5055   63.0182 O   0  0  0  0  0  0  0  0  0  0  0  0
  -38.1186   58.2350   62.6475 H   0  0  0  0  0  0  0  0  0  0  0  0
  -36.3344   59.0644   64.3429 C   0  0  0  0  0  0  0  0  0  0  0  0
  -37.1188   60.2791   64.4248 O   0  0  0  0  0  0  0  0  0  0  0  0
  -37.9621   61.0963   63.3308 P   0  0  0  0  0  0  0  0  0  0  0  0
  -37.2953   62.4566   63.1325 O   0  0  0  0  0  0  0  0  0  0  0  0
  -39.3292   61.3139   63.8523 O   0  0  0  0  0  0  0  0  0  0  0  0
  -39.2809   61.7791   64.7021 H   0  0  0  0  0  0  0  0  0  0  0  0
  -37.9987   60.3085   61.8876 O   0  0  0  0  0  0  0  0  0  0  0  0
  -39.1309   60.2471   60.9781 C   0  0  0  0  0  0  0  0  0  0  0  0
  -40.0789   59.1515   61.3989 C   0  0  0  0  0  0  0  0  0  0  0  0
  -41.5540   59.3964   61.1407 N   0  0  0  0  0  0  0  0  0  0  0  0
  -42.2468   59.7998   62.4027 C   0  0  0  0  0  0  0  0  0  0  0  0
  -42.1662   58.1321   60.6336 C   0  0  0  0  0  0  0  0  0  0  0  0
  -41.7366   60.4823   60.1189 C   0  0  0  0  0  0  0  0  0  0  0  0
 34 33  1  0  0  0
 34 35  1  0  0  0
 34 36  1  0  0  0
 34 37  1  0  0  0
 22 23  1  0  0  0
 22 25  1  0  0  0
 22 21  1  0  0  0
 23 24  1  0  0  0
 27 26  1  0  0  0
 27 28  2  0  0  0
 27 31  1  0  0  0
 27 29  1  0  0  0
 25 26  1  0  0  0
 32 33  1  0  0  0
 32 31  1  0  0  0
 29 30  1  0  0  0
 20 21  1  0  0  0
 20  2  1  0  0  0
  1  2  2  0  0  0
  2  3  1  0  0  0
  3  4  1  0  0  0
  4  5  1  0  0  0
  5  6  1  0  0  0
  6  7  1  0  0  0
  7  8  1  0  0  0
  8  9  1  0  0  0
  9 10  1  0  0  0
 10 11  2  0  0  0
 11 12  1  0  0  0
 12 13  1  0  0  0
 13 14  1  0  0  0
 14 15  1  0  0  0
 15 16  1  0  0  0
 16 17  1  0  0  0
 17 18  1  0  0  0
 18 19  1  0  0  0
M  CHG 1  28  -1
M  END
> <minimizedAffinity>
-7.69839

> <CNNscore>
0.7514638305

> <CNNaffinity>
7.1061997414

> <CNN_VS>
5.3400521278

> <CNNaffinity_variance>
0.1364790648

$$$$
/media/chris/experiments/cd1a-new-docking/inputs/ligands/4x6e_ligand.pdb


 37 36  0  0  0  0  0  0  0  0999 V2000
  -43.7060   59.7900   65.9235 O   0  0  0  0  0  0  0  0  0  0  0  0
  -43.1141   58.7744   66.1936 C   0  0  0  0  0  0  0  0  0  0  0  0
  -43.7108   57.4005   66.2049 C   0  0  0  0  0  0  0  0  0  0  0  0
  -45.1520   57.3688   65.7101 C   0  0  0  0  0  0  0  0  0  0  0  0
  -46.1930   57.3805   66.8163 C   0  0  0  0  0  0  0  0  0  0  0  0
  -46.8420   58.7379   67.0210 C   0  0  0  0  0  0  0  0  0  0  0  0
  -47.5251   59.2625   65.7697 C   0  0  0  0  0  0  0  0  0  0  0  0
  -48.9801   59.5979   66.0100 C   0  0  0  0  0  0  0  0  0  0  0  0
  -49.9600   58.8273   65.1486 C   0  0  0  0  0  0  0  0  0  0  0  0
  -50.8437   59.6844   64.3260 C   0  0  0  0  0  0  0  0  0  0  0  0
  -51.1404   59.4996   63.0562 C   0  0  0  0  0  0  0  0  0  0  0  0
  -50.6927   58.3766   62.1783 C   0  0  0  0  0  0  0  0  0  0  0  0
  -50.1686   58.9235   60.8495 C   0  0  0  0  0  0  0  0  0  0  0  0
  -50.0879   57.9129   59.7147 C   0  0  0  0  0  0  0  0  0  0  0  0
  -49.3249   56.6353   60.0431 C   0  0  0  0  0  0  0  0  0  0  0  0
  -47.9136   56.6032   59.4659 C   0  0  0  0  0  0  0  0  0  0  0  0
  -47.6878   55.4836   58.4622 C   0  0  0  0  0  0  0  0  0  0  0  0
  -47.3560   55.9341   57.0475 C   0  0  0  0  0  0  0  0  0  0  0  0
  -47.5163   57.4111   56.8570 C   0  0  0  0  0  0  0  0  0  0  0  0
  -41.8181   58.7230   66.5147 O   0  0  0  0  0  0  0  0  0  0  0  0
  -41.0191   59.9042   66.2844 C   0  0  0  0  0  0  0  0  0  0  0  0
  -40.7157   60.0961   64.8136 C   0  0  0  0  0  0  0  0  0  0  0  0
  -41.4269   61.2228   64.2833 O   0  0  0  0  0  0  0  0  0  0  0  0
  -41.1298   62.0316   64.7289 H   0  0  0  0  0  0  0  0  0  0  0  0
  -39.2386   60.2612   64.5426 C   0  0  0  0  0  0  0  0  0  0  0  0
  -38.6638   59.0715   63.9496 O   0  0  0  0  0  0  0  0  0  0  0  0
  -37.1733   58.7136   63.4742 P   0  0  0  0  0  0  0  0  0  0  0  0
  -37.2533   58.0878   62.0827 O   0  0  0  0  0  0  0  0  0  0  0  0
  -36.6053   57.7157   64.4069 O   0  0  0  0  0  0  0  0  0  0  0  0
  -37.1801   56.9347   64.4343 H   0  0  0  0  0  0  0  0  0  0  0  0
  -36.2270   60.0566   63.3978 O   0  0  0  0  0  0  0  0  0  0  0  0
  -35.1532   60.3965   64.3166 C   0  0  0  0  0  0  0  0  0  0  0  0
  -35.6932   61.1955   65.4769 C   0  0  0  0  0  0  0  0  0  0  0  0
  -35.3769   62.6796   65.4826 N   0  0  0  0  0  0  0  0  0  0  0  0
  -36.4311   63.4427   64.7466 C   0  0  0  0  0  0  0  0  0  0  0  0
  -34.0628   62.8901   64.8049 C   0  0  0  0  0  0  0  0  0  0  0  0
  -35.2987   63.1959   66.8910 C   0  0  0  0  0  0  0  0  0  0  0  0
 34 33  1  0  0  0
 34 35  1  0  0  0
 34 36  1  0  0  0
 34 37  1  0  0  0
 22 23  1  0  0  0
 22 25  1  0  0  0
 22 21  1  0  0  0
 23 24  1  0  0  0
 27 26  1  0  0  0
 27 28  2  0  0  0
 27 31  1  0  0  0
 27 29  1  0  0  0
 25 26  1  0  0  0
 32 33  1  0  0  0
 32 31  1  0  0  0
 29 30  1  0  0  0
 20 21  1  0  0  0
 20  2  1  0  0  0
  1  2  2  0  0  0
  2  3  1  0  0  0
  3  4  1  0  0  0
  4  5  1  0  0  0
  5  6  1  0  0  0
  6  7  1  0  0  0
  7  8  1  0  0  0
  8  9  1  0  0  0
  9 10  1  0  0  0
 10 11  2  0  0  0
 11 12  1  0  0  0
 12 13  1  0  0  0
 13 14  1  0  0  0
 14 15  1  0  0  0
 15 16  1  0  0  0
 16 17  1  0  0  0
 17 18  1  0  0  0
 18 19  1  0  0  0
M  CHG 1  28  -1
M  END
> <minimizedAffinity>
-7.71007

> <CNNscore>
0.7480896115

> <CNNaffinity>
6.7441048622

> <CNN_VS>
5.0451946259

> <CNNaffinity_variance>
0.3942944109

$$$$
/media/chris/experiments/cd1a-new-docking/inputs/ligands/4x6e_ligand.pdb


 37 36  0  0  0  0  0  0  0  0999 V2000
  -44.3366   60.1156   63.5574 O   0  0  0  0  0  0  0  0  0  0  0  0
  -43.5209   59.6028   64.2830 C   0  0  0  0  0  0  0  0  0  0  0  0
  -43.7821   58.4487   65.2015 C   0  0  0  0  0  0  0  0  0  0  0  0
  -45.2049   57.9121   65.1003 C   0  0  0  0  0  0  0  0  0  0  0  0
  -45.8149   57.5035   66.4301 C   0  0  0  0  0  0  0  0  0  0  0  0
  -46.4146   58.6653   67.2023 C   0  0  0  0  0  0  0  0  0  0  0  0
  -46.8665   59.8035   66.3033 C   0  0  0  0  0  0  0  0  0  0  0  0
  -48.3727   59.8783   66.1884 C   0  0  0  0  0  0  0  0  0  0  0  0
  -49.0432   58.5828   65.7784 C   0  0  0  0  0  0  0  0  0  0  0  0
  -50.3520   58.7659   65.1109 C   0  0  0  0  0  0  0  0  0  0  0  0
  -50.5770   58.7043   63.8146 C   0  0  0  0  0  0  0  0  0  0  0  0
  -49.5854   58.3993   62.7394 C   0  0  0  0  0  0  0  0  0  0  0  0
  -50.0655   58.9683   61.4033 C   0  0  0  0  0  0  0  0  0  0  0  0
  -50.4330   57.9347   60.3487 C   0  0  0  0  0  0  0  0  0  0  0  0
  -49.6882   56.6097   60.4583 C   0  0  0  0  0  0  0  0  0  0  0  0
  -48.4930   56.5031   59.5170 C   0  0  0  0  0  0  0  0  0  0  0  0
  -48.5618   57.4509   58.3301 C   0  0  0  0  0  0  0  0  0  0  0  0
  -47.9654   56.9185   57.0359 C   0  0  0  0  0  0  0  0  0  0  0  0
  -47.0564   55.7482   57.2548 C   0  0  0  0  0  0  0  0  0  0  0  0
  -42.2435   59.9859   64.3665 O   0  0  0  0  0  0  0  0  0  0  0  0
  -41.3596   59.6264   63.2820 C   0  0  0  0  0  0  0  0  0  0  0  0
  -42.1232   59.3686   62.0003 C   0  0  0  0  0  0  0  0  0  0  0  0
  -42.5324   60.5990   61.3878 O   0  0  0  0  0  0  0  0  0  0  0  0
  -41.7481   61.1120   61.1372 H   0  0  0  0  0  0  0  0  0  0  0  0
  -41.3305   58.5518   61.0069 C   0  0  0  0  0  0  0  0  0  0  0  0
  -40.0580   59.1695   60.6958 O   0  0  0  0  0  0  0  0  0  0  0  0
  -38.5428   58.7253   60.9831 P   0  0  0  0  0  0  0  0  0  0  0  0
  -37.8175   58.6082   59.6435 O   0  0  0  0  0  0  0  0  0  0  0  0
  -38.5537   57.3950   61.6301 O   0  0  0  0  0  0  0  0  0  0  0  0
  -39.0208   56.7628   61.0617 H   0  0  0  0  0  0  0  0  0  0  0  0
  -37.7583   59.8295   61.9159 O   0  0  0  0  0  0  0  0  0  0  0  0
  -37.6682   59.8101   63.3666 C   0  0  0  0  0  0  0  0  0  0  0  0
  -36.2230   59.8246   63.7994 C   0  0  0  0  0  0  0  0  0  0  0  0
  -35.5712   58.4735   64.0284 N   0  0  0  0  0  0  0  0  0  0  0  0
  -35.0659   57.9104   62.7389 C   0  0  0  0  0  0  0  0  0  0  0  0
  -36.5903   57.5424   64.5984 C   0  0  0  0  0  0  0  0  0  0  0  0
  -34.4211   58.5993   64.9864 C   0  0  0  0  0  0  0  0  0  0  0  0
 34 33  1  0  0  0
 34 35  1  0  0  0
 34 36  1  0  0  0
 34 37  1  0  0  0
 22 23  1  0  0  0
 22 25  1  0  0  0
 22 21  1  0  0  0
 23 24  1  0  0  0
 27 26  1  0  0  0
 27 28  2  0  0  0
 27 31  1  0  0  0
 27 29  1  0  0  0
 25 26  1  0  0  0
 32 33  1  0  0  0
 32 31  1  0  0  0
 29 30  1  0  0  0
 20 21  1  0  0  0
 20  2  1  0  0  0
  1  2  2  0  0  0
  2  3  1  0  0  0
  3  4  1  0  0  0
  4  5  1  0  0  0
  5  6  1  0  0  0
  6  7  1  0  0  0
  7  8  1  0  0  0
  8  9  1  0  0  0
  9 10  1  0  0  0
 10 11  2  0  0  0
 11 12  1  0  0  0
 12 13  1  0  0  0
 13 14  1  0  0  0
 14 15  1  0  0  0
 15 16  1  0  0  0
 16 17  1  0  0  0
 17 18  1  0  0  0
 18 19  1  0  0  0
M  CHG 1  28  -1
M  END
> <minimizedAffinity>
-7.75385

> <CNNscore>
0.7456503510

> <CNNaffinity>
6.8599882126

> <CNN_VS>
5.1151528358

> <CNNaffinity_variance>
0.2393663824

$$$$
/media/chris/experiments/cd1a-new-docking/inputs/ligands/4x6e_ligand.pdb


 37 36  0  0  0  0  0  0  0  0999 V2000
  -40.8960   57.4505   59.9007 O   0  0  0  0  0  0  0  0  0  0  0  0
  -40.9681   58.2695   60.7833 C   0  0  0  0  0  0  0  0  0  0  0  0
  -42.1964   59.0460   61.1467 C   0  0  0  0  0  0  0  0  0  0  0  0
  -42.1237   60.5109   60.7327 C   0  0  0  0  0  0  0  0  0  0  0  0
  -42.8599   61.4604   61.6622 C   0  0  0  0  0  0  0  0  0  0  0  0
  -43.4316   60.7790   62.8930 C   0  0  0  0  0  0  0  0  0  0  0  0
  -44.7935   61.3215   63.2912 C   0  0  0  0  0  0  0  0  0  0  0  0
  -45.5996   60.3174   64.0847 C   0  0  0  0  0  0  0  0  0  0  0  0
  -47.0957   60.5571   64.0782 C   0  0  0  0  0  0  0  0  0  0  0  0
  -47.8883   59.4380   64.6364 C   0  0  0  0  0  0  0  0  0  0  0  0
  -49.0439   59.0021   64.1789 C   0  0  0  0  0  0  0  0  0  0  0  0
  -49.7895   59.5029   62.9848 C   0  0  0  0  0  0  0  0  0  0  0  0
  -50.9265   58.5423   62.6328 C   0  0  0  0  0  0  0  0  0  0  0  0
  -50.7968   57.8435   61.2872 C   0  0  0  0  0  0  0  0  0  0  0  0
  -49.8310   58.5024   60.3098 C   0  0  0  0  0  0  0  0  0  0  0  0
  -49.4234   57.5968   59.1523 C   0  0  0  0  0  0  0  0  0  0  0  0
  -48.8419   56.2630   59.5938 C   0  0  0  0  0  0  0  0  0  0  0  0
  -47.4220   55.9841   59.1247 C   0  0  0  0  0  0  0  0  0  0  0  0
  -47.3386   55.7244   57.6519 C   0  0  0  0  0  0  0  0  0  0  0  0
  -39.9523   58.6003   61.5859 O   0  0  0  0  0  0  0  0  0  0  0  0
  -38.6112   58.3278   61.1233 C   0  0  0  0  0  0  0  0  0  0  0  0
  -37.6919   57.9494   62.2651 C   0  0  0  0  0  0  0  0  0  0  0  0
  -36.4678   58.6944   62.2099 O   0  0  0  0  0  0  0  0  0  0  0  0
  -36.6592   59.6392   62.3180 H   0  0  0  0  0  0  0  0  0  0  0  0
  -38.3369   58.1420   63.6177 C   0  0  0  0  0  0  0  0  0  0  0  0
  -37.8673   59.3460   64.2714 O   0  0  0  0  0  0  0  0  0  0  0  0
  -38.3049   60.8849   64.1446 P   0  0  0  0  0  0  0  0  0  0  0  0
  -39.8225   60.9373   63.9760 O   0  0  0  0  0  0  0  0  0  0  0  0
  -37.6769   61.4577   62.9339 O   0  0  0  0  0  0  0  0  0  0  0  0
  -37.9359   60.9366   62.1578 H   0  0  0  0  0  0  0  0  0  0  0  0
  -37.8908   61.7410   65.4864 O   0  0  0  0  0  0  0  0  0  0  0  0
  -36.5460   61.9011   66.0144 C   0  0  0  0  0  0  0  0  0  0  0  0
  -36.1697   63.3616   66.0486 C   0  0  0  0  0  0  0  0  0  0  0  0
  -34.7921   63.7184   65.5215 N   0  0  0  0  0  0  0  0  0  0  0  0
  -34.1006   64.6578   66.4566 C   0  0  0  0  0  0  0  0  0  0  0  0
  -34.9467   64.3822   64.1927 C   0  0  0  0  0  0  0  0  0  0  0  0
  -33.9518   62.4830   65.3658 C   0  0  0  0  0  0  0  0  0  0  0  0
 34 33  1  0  0  0
 34 35  1  0  0  0
 34 36  1  0  0  0
 34 37  1  0  0  0
 22 23  1  0  0  0
 22 25  1  0  0  0
 22 21  1  0  0  0
 23 24  1  0  0  0
 27 26  1  0  0  0
 27 28  2  0  0  0
 27 31  1  0  0  0
 27 29  1  0  0  0
 25 26  1  0  0  0
 32 33  1  0  0  0
 32 31  1  0  0  0
 29 30  1  0  0  0
 20 21  1  0  0  0
 20  2  1  0  0  0
  1  2  2  0  0  0
  2  3  1  0  0  0
  3  4  1  0  0  0
  4  5  1  0  0  0
  5  6  1  0  0  0
  6  7  1  0  0  0
  7  8  1  0  0  0
  8  9  1  0  0  0
  9 10  1  0  0  0
 10 11  2  0  0  0
 11 12  1  0  0  0
 12 13  1  0  0  0
 13 14  1  0  0  0
 14 15  1  0  0  0
 15 16  1  0  0  0
 16 17  1  0  0  0
 17 18  1  0  0  0
 18 19  1  0  0  0
M  CHG 1  28  -1
M  END
> <minimizedAffinity>
-7.97842

> <CNNscore>
0.6907091737

> <CNNaffinity>
6.5458502769

> <CNN_VS>
4.5212788582

> <CNNaffinity_variance>
0.2066371143

$$$$
/media/chris/experiments/cd1a-new-docking/inputs/ligands/4x6e_ligand.pdb


 37 36  0  0  0  0  0  0  0  0999 V2000
  -40.4225   58.8406   65.4647 O   0  0  0  0  0  0  0  0  0  0  0  0
  -40.6207   59.9041   65.9981 C   0  0  0  0  0  0  0  0  0  0  0  0
  -41.8689   60.2857   66.7330 C   0  0  0  0  0  0  0  0  0  0  0  0
  -42.7323   59.0879   67.1104 C   0  0  0  0  0  0  0  0  0  0  0  0
  -44.1708   59.1784   66.6308 C   0  0  0  0  0  0  0  0  0  0  0  0
  -44.2965   59.5494   65.1637 C   0  0  0  0  0  0  0  0  0  0  0  0
  -45.6425   60.1650   64.8219 C   0  0  0  0  0  0  0  0  0  0  0  0
  -46.7827   59.4873   65.5488 C   0  0  0  0  0  0  0  0  0  0  0  0
  -47.9147   59.0188   64.6572 C   0  0  0  0  0  0  0  0  0  0  0  0
  -49.1591   58.6858   65.3871 C   0  0  0  0  0  0  0  0  0  0  0  0
  -50.3777   59.0566   65.0521 C   0  0  0  0  0  0  0  0  0  0  0  0
  -50.7823   59.8522   63.8538 C   0  0  0  0  0  0  0  0  0  0  0  0
  -51.1771   58.9172   62.7095 C   0  0  0  0  0  0  0  0  0  0  0  0
  -50.0850   58.6416   61.6863 C   0  0  0  0  0  0  0  0  0  0  0  0
  -50.4660   57.6577   60.5868 C   0  0  0  0  0  0  0  0  0  0  0  0
  -49.7701   57.9303   59.2573 C   0  0  0  0  0  0  0  0  0  0  0  0
  -48.6517   56.9505   58.9394 C   0  0  0  0  0  0  0  0  0  0  0  0
  -48.0869   57.0418   57.5298 C   0  0  0  0  0  0  0  0  0  0  0  0
  -47.0466   56.0001   57.2536 C   0  0  0  0  0  0  0  0  0  0  0  0
  -39.7390   60.9079   66.0231 O   0  0  0  0  0  0  0  0  0  0  0  0
  -38.3430   60.5750   66.1881 C   0  0  0  0  0  0  0  0  0  0  0  0
  -37.4755   61.2802   65.1672 C   0  0  0  0  0  0  0  0  0  0  0  0
  -37.2200   62.6365   65.5568 O   0  0  0  0  0  0  0  0  0  0  0  0
  -36.7209   62.6454   66.3885 H   0  0  0  0  0  0  0  0  0  0  0  0
  -36.1635   60.5695   64.9307 C   0  0  0  0  0  0  0  0  0  0  0  0
  -36.1082   59.9649   63.6158 O   0  0  0  0  0  0  0  0  0  0  0  0
  -36.3248   58.4572   63.1100 P   0  0  0  0  0  0  0  0  0  0  0  0
  -37.0253   57.6770   64.2212 O   0  0  0  0  0  0  0  0  0  0  0  0
  -35.0006   57.8441   62.8674 O   0  0  0  0  0  0  0  0  0  0  0  0
  -34.4706   57.8873   63.6786 H   0  0  0  0  0  0  0  0  0  0  0  0
  -37.2573   58.4045   61.7563 O   0  0  0  0  0  0  0  0  0  0  0  0
  -38.4756   57.6293   61.5897 C   0  0  0  0  0  0  0  0  0  0  0  0
  -39.6798   58.4697   61.9358 C   0  0  0  0  0  0  0  0  0  0  0  0
  -41.0318   57.7876   61.8395 N   0  0  0  0  0  0  0  0  0  0  0  0
  -41.0981   56.6218   62.7732 C   0  0  0  0  0  0  0  0  0  0  0  0
  -41.2222   57.3005   60.4406 C   0  0  0  0  0  0  0  0  0  0  0  0
  -42.1327   58.7493   62.1856 C   0  0  0  0  0  0  0  0  0  0  0  0
 34 33  1  0  0  0
 34 35  1  0  0  0
 34 36  1  0  0  0
 34 37  1  0  0  0
 22 23  1  0  0  0
 22 25  1  0  0  0
 22 21  1  0  0  0
 23 24  1  0  0  0
 27 26  1  0  0  0
 27 28  2  0  0  0
 27 31  1  0  0  0
 27 29  1  0  0  0
 25 26  1  0  0  0
 32 33  1  0  0  0
 32 31  1  0  0  0
 29 30  1  0  0  0
 20 21  1  0  0  0
 20  2  1  0  0  0
  1  2  2  0  0  0
  2  3  1  0  0  0
  3  4  1  0  0  0
  4  5  1  0  0  0
  5  6  1  0  0  0
  6  7  1  0  0  0
  7  8  1  0  0  0
  8  9  1  0  0  0
  9 10  1  0  0  0
 10 11  2  0  0  0
 11 12  1  0  0  0
 12 13  1  0  0  0
 13 14  1  0  0  0
 14 15  1  0  0  0
 15 16  1  0  0  0
 16 17  1  0  0  0
 17 18  1  0  0  0
 18 19  1  0  0  0
M  CHG 1  28  -1
M  END
> <minimizedAffinity>
-8.25289

> <CNNscore>
0.6854059100

> <CNNaffinity>
7.0268983841

> <CNN_VS>
4.8162775040

> <CNNaffinity_variance>
0.3086336255

$$$$
/media/chris/experiments/cd1a-new-docking/inputs/ligands/4x6e_ligand.pdb


 37 36  0  0  0  0  0  0  0  0999 V2000
  -42.6292   55.9655   65.4031 O   0  0  0  0  0  0  0  0  0  0  0  0
  -42.8919   57.0035   64.8479 C   0  0  0  0  0  0  0  0  0  0  0  0
  -44.1660   57.7745   65.0093 C   0  0  0  0  0  0  0  0  0  0  0  0
  -44.5999   57.9174   66.4632 C   0  0  0  0  0  0  0  0  0  0  0  0
  -46.0088   58.4555   66.6450 C   0  0  0  0  0  0  0  0  0  0  0  0
  -47.0767   57.3764   66.6127 C   0  0  0  0  0  0  0  0  0  0  0  0
  -48.1112   57.5994   65.5229 C   0  0  0  0  0  0  0  0  0  0  0  0
  -48.2421   59.0590   65.1486 C   0  0  0  0  0  0  0  0  0  0  0  0
  -48.1082   59.3490   63.6674 C   0  0  0  0  0  0  0  0  0  0  0  0
  -49.2065   60.1722   63.1122 C   0  0  0  0  0  0  0  0  0  0  0  0
  -50.3734   59.7279   62.6931 C   0  0  0  0  0  0  0  0  0  0  0  0
  -50.8650   58.3172   62.7193 C   0  0  0  0  0  0  0  0  0  0  0  0
  -50.9921   57.7772   61.2940 C   0  0  0  0  0  0  0  0  0  0  0  0
  -50.2092   58.5401   60.2353 C   0  0  0  0  0  0  0  0  0  0  0  0
  -49.3819   57.6715   59.2954 C   0  0  0  0  0  0  0  0  0  0  0  0
  -48.9411   56.3502   59.9166 C   0  0  0  0  0  0  0  0  0  0  0  0
  -47.5771   55.8751   59.4416 C   0  0  0  0  0  0  0  0  0  0  0  0
  -47.1576   56.3702   58.0657 C   0  0  0  0  0  0  0  0  0  0  0  0
  -47.5749   55.4445   56.9646 C   0  0  0  0  0  0  0  0  0  0  0  0
  -42.0686   57.6338   64.0048 O   0  0  0  0  0  0  0  0  0  0  0  0
  -40.7345   57.1040   63.8430 C   0  0  0  0  0  0  0  0  0  0  0  0
  -40.5791   56.3726   62.5266 C   0  0  0  0  0  0  0  0  0  0  0  0
  -41.2506   55.1059   62.5583 O   0  0  0  0  0  0  0  0  0  0  0  0
  -42.2026   55.2475   62.6787 H   0  0  0  0  0  0  0  0  0  0  0  0
  -41.0820   57.1788   61.3520 C   0  0  0  0  0  0  0  0  0  0  0  0
  -40.0160   57.5058   60.4278 O   0  0  0  0  0  0  0  0  0  0  0  0
  -38.7711   58.5139   60.5276 P   0  0  0  0  0  0  0  0  0  0  0  0
  -39.3166   59.9305   60.7002 O   0  0  0  0  0  0  0  0  0  0  0  0
  -38.0101   58.4538   59.2605 O   0  0  0  0  0  0  0  0  0  0  0  0
  -38.5983   58.6681   58.5195 H   0  0  0  0  0  0  0  0  0  0  0  0
  -37.8086   58.1563   61.8124 O   0  0  0  0  0  0  0  0  0  0  0  0
  -37.7357   58.9032   63.0573 C   0  0  0  0  0  0  0  0  0  0  0  0
  -36.3117   59.3177   63.3340 C   0  0  0  0  0  0  0  0  0  0  0  0
  -35.4263   58.2882   64.0114 N   0  0  0  0  0  0  0  0  0  0  0  0
  -34.5329   58.9445   65.0146 C   0  0  0  0  0  0  0  0  0  0  0  0
  -34.5840   57.6248   62.9717 C   0  0  0  0  0  0  0  0  0  0  0  0
  -36.2617   57.2532   64.7097 C   0  0  0  0  0  0  0  0  0  0  0  0
 34 33  1  0  0  0
 34 35  1  0  0  0
 34 36  1  0  0  0
 34 37  1  0  0  0
 22 23  1  0  0  0
 22 25  1  0  0  0
 22 21  1  0  0  0
 23 24  1  0  0  0
 27 26  1  0  0  0
 27 28  2  0  0  0
 27 31  1  0  0  0
 27 29  1  0  0  0
 25 26  1  0  0  0
 32 33  1  0  0  0
 32 31  1  0  0  0
 29 30  1  0  0  0
 20 21  1  0  0  0
 20  2  1  0  0  0
  1  2  2  0  0  0
  2  3  1  0  0  0
  3  4  1  0  0  0
  4  5  1  0  0  0
  5  6  1  0  0  0
  6  7  1  0  0  0
  7  8  1  0  0  0
  8  9  1  0  0  0
  9 10  1  0  0  0
 10 11  2  0  0  0
 11 12  1  0  0  0
 12 13  1  0  0  0
 13 14  1  0  0  0
 14 15  1  0  0  0
 15 16  1  0  0  0
 16 17  1  0  0  0
 17 18  1  0  0  0
 18 19  1  0  0  0
M  CHG 1  28  -1
M  END
> <minimizedAffinity>
-7.75397

> <CNNscore>
0.6801759601

> <CNNaffinity>
6.8758821487

> <CNN_VS>
4.6768097878

> <CNNaffinity_variance>
0.2276443541

$$$$
/media/chris/experiments/cd1a-new-docking/inputs/ligands/4x6e_ligand.pdb


 37 36  0  0  0  0  0  0  0  0999 V2000
  -43.2346   60.8226   64.0195 O   0  0  0  0  0  0  0  0  0  0  0  0
  -42.6613   59.9066   63.4837 C   0  0  0  0  0  0  0  0  0  0  0  0
  -43.2571   58.5639   63.1907 C   0  0  0  0  0  0  0  0  0  0  0  0
  -44.5390   58.2941   63.9696 C   0  0  0  0  0  0  0  0  0  0  0  0
  -44.3202   57.6638   65.3343 C   0  0  0  0  0  0  0  0  0  0  0  0
  -45.5663   57.6538   66.2021 C   0  0  0  0  0  0  0  0  0  0  0  0
  -45.8863   59.0155   66.7944 C   0  0  0  0  0  0  0  0  0  0  0  0
  -47.2254   59.5418   66.3282 C   0  0  0  0  0  0  0  0  0  0  0  0
  -48.2858   58.4804   66.1163 C   0  0  0  0  0  0  0  0  0  0  0  0
  -49.6231   59.0217   65.7837 C   0  0  0  0  0  0  0  0  0  0  0  0
  -50.1139   59.1866   64.5726 C   0  0  0  0  0  0  0  0  0  0  0  0
  -49.4595   58.8323   63.2770 C   0  0  0  0  0  0  0  0  0  0  0  0
  -50.4725   58.1766   62.3372 C   0  0  0  0  0  0  0  0  0  0  0  0
  -49.8753   57.4258   61.1560 C   0  0  0  0  0  0  0  0  0  0  0  0
  -49.8538   58.2012   59.8443 C   0  0  0  0  0  0  0  0  0  0  0  0
  -49.3391   57.3856   58.6628 C   0  0  0  0  0  0  0  0  0  0  0  0
  -48.2806   56.3614   59.0404 C   0  0  0  0  0  0  0  0  0  0  0  0
  -47.3141   55.9832   57.9282 C   0  0  0  0  0  0  0  0  0  0  0  0
  -47.3032   56.9764   56.8071 C   0  0  0  0  0  0  0  0  0  0  0  0
  -41.3965   59.9594   63.0555 O   0  0  0  0  0  0  0  0  0  0  0  0
  -40.4109   59.1789   63.7668 C   0  0  0  0  0  0  0  0  0  0  0  0
  -39.5050   60.0536   64.6072 C   0  0  0  0  0  0  0  0  0  0  0  0
  -38.9630   59.3207   65.7143 O   0  0  0  0  0  0  0  0  0  0  0  0
  -38.4089   58.5969   65.3826 H   0  0  0  0  0  0  0  0  0  0  0  0
  -38.3773   60.6603   63.8056 C   0  0  0  0  0  0  0  0  0  0  0  0
  -37.9498   61.9307   64.3540 O   0  0  0  0  0  0  0  0  0  0  0  0
  -36.8528   62.3153   65.4606 P   0  0  0  0  0  0  0  0  0  0  0  0
  -37.0830   61.4343   66.6874 O   0  0  0  0  0  0  0  0  0  0  0  0
  -37.0501   63.7281   65.8522 O   0  0  0  0  0  0  0  0  0  0  0  0
  -37.9566   63.8507   66.1749 H   0  0  0  0  0  0  0  0  0  0  0  0
  -35.3249   62.0637   64.9064 O   0  0  0  0  0  0  0  0  0  0  0  0
  -34.5530   60.8415   65.0587 C   0  0  0  0  0  0  0  0  0  0  0  0
  -34.2494   60.2447   63.7068 C   0  0  0  0  0  0  0  0  0  0  0  0
  -34.3368   58.7337   63.5986 N   0  0  0  0  0  0  0  0  0  0  0  0
  -34.3338   58.1101   64.9574 C   0  0  0  0  0  0  0  0  0  0  0  0
  -33.1515   58.2404   62.8355 C   0  0  0  0  0  0  0  0  0  0  0  0
  -35.5935   58.3289   62.8821 C   0  0  0  0  0  0  0  0  0  0  0  0
 34 33  1  0  0  0
 34 35  1  0  0  0
 34 36  1  0  0  0
 34 37  1  0  0  0
 22 23  1  0  0  0
 22 25  1  0  0  0
 22 21  1  0  0  0
 23 24  1  0  0  0
 27 26  1  0  0  0
 27 28  2  0  0  0
 27 31  1  0  0  0
 27 29  1  0  0  0
 25 26  1  0  0  0
 32 33  1  0  0  0
 32 31  1  0  0  0
 29 30  1  0  0  0
 20 21  1  0  0  0
 20  2  1  0  0  0
  1  2  2  0  0  0
  2  3  1  0  0  0
  3  4  1  0  0  0
  4  5  1  0  0  0
  5  6  1  0  0  0
  6  7  1  0  0  0
  7  8  1  0  0  0
  8  9  1  0  0  0
  9 10  1  0  0  0
 10 11  2  0  0  0
 11 12  1  0  0  0
 12 13  1  0  0  0
 13 14  1  0  0  0
 14 15  1  0  0  0
 15 16  1  0  0  0
 16 17  1  0  0  0
 17 18  1  0  0  0
 18 19  1  0  0  0
M  CHG 1  28  -1
M  END
> <minimizedAffinity>
-7.62322

> <CNNscore>
0.6683106422

> <CNNaffinity>
6.7703561783

> <CNN_VS>
4.5247011185

> <CNNaffinity_variance>
0.4510498047

$$$$
/media/chris/experiments/cd1a-new-docking/inputs/ligands/4x6e_ligand.pdb


 37 36  0  0  0  0  0  0  0  0999 V2000
  -40.3093   56.3492   62.1921 O   0  0  0  0  0  0  0  0  0  0  0  0
  -41.0948   57.2646   62.1939 C   0  0  0  0  0  0  0  0  0  0  0  0
  -42.4391   57.2516   62.8544 C   0  0  0  0  0  0  0  0  0  0  0  0
  -42.3593   57.2537   64.3763 C   0  0  0  0  0  0  0  0  0  0  0  0
  -43.6784   57.5449   65.0710 C   0  0  0  0  0  0  0  0  0  0  0  0
  -44.5832   58.4764   64.2839 C   0  0  0  0  0  0  0  0  0  0  0  0
  -45.5198   59.2802   65.1695 C   0  0  0  0  0  0  0  0  0  0  0  0
  -46.1300   60.4554   64.4387 C   0  0  0  0  0  0  0  0  0  0  0  0
  -47.6375   60.4003   64.2950 C   0  0  0  0  0  0  0  0  0  0  0  0
  -48.2180   59.0603   64.5388 C   0  0  0  0  0  0  0  0  0  0  0  0
  -49.0892   58.4408   63.7694 C   0  0  0  0  0  0  0  0  0  0  0  0
  -49.6520   58.9233   62.4721 C   0  0  0  0  0  0  0  0  0  0  0  0
  -50.8419   58.0555   62.0590 C   0  0  0  0  0  0  0  0  0  0  0  0
  -50.7696   57.4759   60.6539 C   0  0  0  0  0  0  0  0  0  0  0  0
  -49.9482   58.2911   59.6624 C   0  0  0  0  0  0  0  0  0  0  0  0
  -49.0783   57.4378   58.7452 C   0  0  0  0  0  0  0  0  0  0  0  0
  -48.3739   56.2946   59.4586 C   0  0  0  0  0  0  0  0  0  0  0  0
  -47.0875   55.8129   58.8050 C   0  0  0  0  0  0  0  0  0  0  0  0
  -47.1466   55.8548   57.3089 C   0  0  0  0  0  0  0  0  0  0  0  0
  -40.8733   58.4456   61.6094 O   0  0  0  0  0  0  0  0  0  0  0  0
  -42.0211   59.2447   61.2480 C   0  0  0  0  0  0  0  0  0  0  0  0
  -41.8447   60.6926   61.6539 C   0  0  0  0  0  0  0  0  0  0  0  0
  -42.9191   61.5019   61.1567 O   0  0  0  0  0  0  0  0  0  0  0  0
  -43.7546   61.2093   61.5534 H   0  0  0  0  0  0  0  0  0  0  0  0
  -41.7355   60.8664   63.1507 C   0  0  0  0  0  0  0  0  0  0  0  0
  -40.4731   60.3713   63.6594 O   0  0  0  0  0  0  0  0  0  0  0  0
  -39.8838   60.2421   65.1466 P   0  0  0  0  0  0  0  0  0  0  0  0
  -40.9614   60.6993   66.1285 O   0  0  0  0  0  0  0  0  0  0  0  0
  -38.7180   61.1437   65.2742 O   0  0  0  0  0  0  0  0  0  0  0  0
  -38.9865   62.0515   65.0625 H   0  0  0  0  0  0  0  0  0  0  0  0
  -39.4711   58.6893   65.4978 O   0  0  0  0  0  0  0  0  0  0  0  0
  -38.4184   57.9205   64.8547 C   0  0  0  0  0  0  0  0  0  0  0  0
  -37.1073   58.6626   64.9351 C   0  0  0  0  0  0  0  0  0  0  0  0
  -36.2031   58.5732   63.7198 N   0  0  0  0  0  0  0  0  0  0  0  0
  -37.0009   58.7059   62.4624 C   0  0  0  0  0  0  0  0  0  0  0  0
  -35.5248   57.2427   63.7263 C   0  0  0  0  0  0  0  0  0  0  0  0
  -35.1667   59.6601   63.7534 C   0  0  0  0  0  0  0  0  0  0  0  0
 34 33  1  0  0  0
 34 35  1  0  0  0
 34 36  1  0  0  0
 34 37  1  0  0  0
 22 23  1  0  0  0
 22 25  1  0  0  0
 22 21  1  0  0  0
 23 24  1  0  0  0
 27 26  1  0  0  0
 27 28  2  0  0  0
 27 31  1  0  0  0
 27 29  1  0  0  0
 25 26  1  0  0  0
 32 33  1  0  0  0
 32 31  1  0  0  0
 29 30  1  0  0  0
 20 21  1  0  0  0
 20  2  1  0  0  0
  1  2  2  0  0  0
  2  3  1  0  0  0
  3  4  1  0  0  0
  4  5  1  0  0  0
  5  6  1  0  0  0
  6  7  1  0  0  0
  7  8  1  0  0  0
  8  9  1  0  0  0
  9 10  1  0  0  0
 10 11  2  0  0  0
 11 12  1  0  0  0
 12 13  1  0  0  0
 13 14  1  0  0  0
 14 15  1  0  0  0
 15 16  1  0  0  0
 16 17  1  0  0  0
 17 18  1  0  0  0
 18 19  1  0  0  0
M  CHG 1  28  -1
M  END
> <minimizedAffinity>
-7.54246

> <CNNscore>
0.6234309673

> <CNNaffinity>
6.9005646706

> <CNN_VS>
4.3020257950

> <CNNaffinity_variance>
0.1780666262

$$$$
/media/chris/experiments/cd1a-new-docking/inputs/ligands/4x6e_ligand.pdb


 37 36  0  0  0  0  0  0  0  0999 V2000
  -42.1823   56.5481   64.0614 O   0  0  0  0  0  0  0  0  0  0  0  0
  -42.3880   57.7253   64.2242 C   0  0  0  0  0  0  0  0  0  0  0  0
  -43.5286   58.3063   65.0021 C   0  0  0  0  0  0  0  0  0  0  0  0
  -44.7547   58.5939   64.1438 C   0  0  0  0  0  0  0  0  0  0  0  0
  -45.1232   60.0648   64.0532 C   0  0  0  0  0  0  0  0  0  0  0  0
  -46.5745   60.3466   64.4001 C   0  0  0  0  0  0  0  0  0  0  0  0
  -46.9507   59.8811   65.7963 C   0  0  0  0  0  0  0  0  0  0  0  0
  -48.4177   60.0961   66.0951 C   0  0  0  0  0  0  0  0  0  0  0  0
  -49.3586   59.1627   65.3607 C   0  0  0  0  0  0  0  0  0  0  0  0
  -50.5988   59.8125   64.8792 C   0  0  0  0  0  0  0  0  0  0  0  0
  -50.9564   59.9649   63.6208 C   0  0  0  0  0  0  0  0  0  0  0  0
  -50.2232   59.4879   62.4095 C   0  0  0  0  0  0  0  0  0  0  0  0
  -50.4131   57.9798   62.2387 C   0  0  0  0  0  0  0  0  0  0  0  0
  -50.8107   57.5267   60.8415 C   0  0  0  0  0  0  0  0  0  0  0  0
  -50.1931   58.3304   59.7036 C   0  0  0  0  0  0  0  0  0  0  0  0
  -49.1869   57.5388   58.8747 C   0  0  0  0  0  0  0  0  0  0  0  0
  -48.6834   56.2794   59.5620 C   0  0  0  0  0  0  0  0  0  0  0  0
  -47.3155   55.7924   59.1083 C   0  0  0  0  0  0  0  0  0  0  0  0
  -47.1285   55.8885   57.6253 C   0  0  0  0  0  0  0  0  0  0  0  0
  -41.6110   58.6979   63.7383 O   0  0  0  0  0  0  0  0  0  0  0  0
  -40.2472   58.7697   64.2090 C   0  0  0  0  0  0  0  0  0  0  0  0
  -39.8824   60.1698   64.6549 C   0  0  0  0  0  0  0  0  0  0  0  0
  -41.0478   60.9997   64.7524 O   0  0  0  0  0  0  0  0  0  0  0  0
  -41.6414   60.6449   65.4327 H   0  0  0  0  0  0  0  0  0  0  0  0
  -39.1428   60.1850   65.9721 C   0  0  0  0  0  0  0  0  0  0  0  0
  -38.3918   61.4100   66.1536 O   0  0  0  0  0  0  0  0  0  0  0  0
  -37.1739   62.0616   65.3363 P   0  0  0  0  0  0  0  0  0  0  0  0
  -36.7357   63.3314   66.0642 O   0  0  0  0  0  0  0  0  0  0  0  0
  -37.6541   62.4342   63.9877 O   0  0  0  0  0  0  0  0  0  0  0  0
  -38.4081   63.0391   64.0685 H   0  0  0  0  0  0  0  0  0  0  0  0
  -35.8928   61.0344   65.2444 O   0  0  0  0  0  0  0  0  0  0  0  0
  -34.4905   61.4134   65.2968 C   0  0  0  0  0  0  0  0  0  0  0  0
  -34.1073   62.1683   64.0480 C   0  0  0  0  0  0  0  0  0  0  0  0
  -33.4668   63.5291   64.2493 N   0  0  0  0  0  0  0  0  0  0  0  0
  -32.1659   63.6093   63.5170 C   0  0  0  0  0  0  0  0  0  0  0  0
  -33.2159   63.7275   65.7081 C   0  0  0  0  0  0  0  0  0  0  0  0
  -34.3733   64.6170   63.7479 C   0  0  0  0  0  0  0  0  0  0  0  0
 34 33  1  0  0  0
 34 35  1  0  0  0
 34 36  1  0  0  0
 34 37  1  0  0  0
 22 23  1  0  0  0
 22 25  1  0  0  0
 22 21  1  0  0  0
 23 24  1  0  0  0
 27 26  1  0  0  0
 27 28  2  0  0  0
 27 31  1  0  0  0
 27 29  1  0  0  0
 25 26  1  0  0  0
 32 33  1  0  0  0
 32 31  1  0  0  0
 29 30  1  0  0  0
 20 21  1  0  0  0
 20  2  1  0  0  0
  1  2  2  0  0  0
  2  3  1  0  0  0
  3  4  1  0  0  0
  4  5  1  0  0  0
  5  6  1  0  0  0
  6  7  1  0  0  0
  7  8  1  0  0  0
  8  9  1  0  0  0
  9 10  1  0  0  0
 10 11  2  0  0  0
 11 12  1  0  0  0
 12 13  1  0  0  0
 13 14  1  0  0  0
 14 15  1  0  0  0
 15 16  1  0  0  0
 16 17  1  0  0  0
 17 18  1  0  0  0
 18 19  1  0  0  0
M  CHG 1  28  -1
M  END
> <minimizedAffinity>
-8.06371

> <CNNscore>
0.5779194236

> <CNNaffinity>
6.1692051888

> <CNN_VS>
3.5653035641

> <CNNaffinity_variance>
0.0390341394

$$$$
