/media/chris/experiments/cd1a-new-docking/inputs/ligands/4x6e_ligand.pdb


 37 36  0  0  0  0  0  0  0  0999 V2000
  -41.9798   57.6724   64.4090 O   0  0  0  0  0  0  0  0  0  0  0  0
  -42.0363   58.2352   65.4742 C   0  0  0  0  0  0  0  0  0  0  0  0
  -43.2757   58.4106   66.2969 C   0  0  0  0  0  0  0  0  0  0  0  0
  -44.3427   57.3624   66.0044 C   0  0  0  0  0  0  0  0  0  0  0  0
  -45.7054   57.9374   65.6583 C   0  0  0  0  0  0  0  0  0  0  0  0
  -45.6554   59.0006   64.5753 C   0  0  0  0  0  0  0  0  0  0  0  0
  -46.7591   60.0356   64.7102 C   0  0  0  0  0  0  0  0  0  0  0  0
  -47.3849   60.0284   66.0871 C   0  0  0  0  0  0  0  0  0  0  0  0
  -48.8884   59.8406   66.1000 C   0  0  0  0  0  0  0  0  0  0  0  0
  -49.3475   58.6018   65.4316 C   0  0  0  0  0  0  0  0  0  0  0  0
  -50.2087   58.5301   64.4378 C   0  0  0  0  0  0  0  0  0  0  0  0
  -50.8790   59.6687   63.7399 C   0  0  0  0  0  0  0  0  0  0  0  0
  -50.7788   59.4897   62.2241 C   0  0  0  0  0  0  0  0  0  0  0  0
  -50.7252   58.0481   61.7399 C   0  0  0  0  0  0  0  0  0  0  0  0
  -49.9077   57.8239   60.4735 C   0  0  0  0  0  0  0  0  0  0  0  0
  -49.2698   56.4407   60.3971 C   0  0  0  0  0  0  0  0  0  0  0  0
  -48.2834   56.2836   59.2509 C   0  0  0  0  0  0  0  0  0  0  0  0
  -48.4895   57.2323   58.0795 C   0  0  0  0  0  0  0  0  0  0  0  0
  -47.4309   57.0945   57.0287 C   0  0  0  0  0  0  0  0  0  0  0  0
  -40.9850   58.7821   66.0916 O   0  0  0  0  0  0  0  0  0  0  0  0
  -40.5900   60.1146   65.6979 C   0  0  0  0  0  0  0  0  0  0  0  0
  -39.3106   60.1024   64.8884 C   0  0  0  0  0  0  0  0  0  0  0  0
  -39.3259   61.1263   63.8845 O   0  0  0  0  0  0  0  0  0  0  0  0
  -39.3683   61.9965   64.3108 H   0  0  0  0  0  0  0  0  0  0  0  0
  -38.0785   60.2601   65.7483 C   0  0  0  0  0  0  0  0  0  0  0  0
  -37.8263   61.6475   66.0783 O   0  0  0  0  0  0  0  0  0  0  0  0
  -36.6518   62.6601   65.6647 P   0  0  0  0  0  0  0  0  0  0  0  0
  -36.8782   63.9799   66.4000 O   0  0  0  0  0  0  0  0  0  0  0  0
  -36.7340   62.9120   64.2093 O   0  0  0  0  0  0  0  0  0  0  0  0
  -37.6130   63.2593   63.9906 H   0  0  0  0  0  0  0  0  0  0  0  0
  -35.1739   62.0691   66.0793 O   0  0  0  0  0  0  0  0  0  0  0  0
  -33.8997   62.4905   65.5210 C   0  0  0  0  0  0  0  0  0  0  0  0
  -33.4553   63.7853   66.1551 C   0  0  0  0  0  0  0  0  0  0  0  0
  -32.5341   64.6630   65.3280 N   0  0  0  0  0  0  0  0  0  0  0  0
  -31.3589   63.8771   64.8421 C   0  0  0  0  0  0  0  0  0  0  0  0
  -32.0472   65.7849   66.1851 C   0  0  0  0  0  0  0  0  0  0  0  0
  -33.2660   65.2241   64.1423 C   0  0  0  0  0  0  0  0  0  0  0  0
 34 33  1  0  0  0
 34 35  1  0  0  0
 34 36  1  0  0  0
 34 37  1  0  0  0
 22 23  1  0  0  0
 22 25  1  0  0  0
 22 21  1  0  0  0
 23 24  1  0  0  0
 27 26  1  0  0  0
 27 28  2  0  0  0
 27 31  1  0  0  0
 27 29  1  0  0  0
 25 26  1  0  0  0
 32 33  1  0  0  0
 32 31  1  0  0  0
 29 30  1  0  0  0
 20 21  1  0  0  0
 20  2  1  0  0  0
  1  2  2  0  0  0
  2  3  1  0  0  0
  3  4  1  0  0  0
  4  5  1  0  0  0
  5  6  1  0  0  0
  6  7  1  0  0  0
  7  8  1  0  0  0
  8  9  1  0  0  0
  9 10  1  0  0  0
 10 11  2  0  0  0
 11 12  1  0  0  0
 12 13  1  0  0  0
 13 14  1  0  0  0
 14 15  1  0  0  0
 15 16  1  0  0  0
 16 17  1  0  0  0
 17 18  1  0  0  0
 18 19  1  0  0  0
M  CHG 1  28  -1
M  END
> <minimizedAffinity>
-8.11686

> <CNNscore>
0.8498906493

> <CNNaffinity>
6.3890061378

> <CNN_VS>
5.4299564362

> <CNNaffinity_variance>
0.1119735241

$$$$
/media/chris/experiments/cd1a-new-docking/inputs/ligands/4x6e_ligand.pdb


 37 36  0  0  0  0  0  0  0  0999 V2000
  -41.8785   57.8422   64.2314 O   0  0  0  0  0  0  0  0  0  0  0  0
  -42.0455   58.2895   65.3390 C   0  0  0  0  0  0  0  0  0  0  0  0
  -43.3719   58.4611   66.0133 C   0  0  0  0  0  0  0  0  0  0  0  0
  -44.4072   57.4345   65.5696 C   0  0  0  0  0  0  0  0  0  0  0  0
  -45.7749   58.0192   65.2611 C   0  0  0  0  0  0  0  0  0  0  0  0
  -45.7291   59.1816   64.2850 C   0  0  0  0  0  0  0  0  0  0  0  0
  -46.8445   60.1879   64.5099 C   0  0  0  0  0  0  0  0  0  0  0  0
  -47.3815   60.1404   65.9230 C   0  0  0  0  0  0  0  0  0  0  0  0
  -48.8754   59.9089   66.0269 C   0  0  0  0  0  0  0  0  0  0  0  0
  -49.3341   58.6433   65.4102 C   0  0  0  0  0  0  0  0  0  0  0  0
  -50.2621   58.5238   64.4833 C   0  0  0  0  0  0  0  0  0  0  0  0
  -51.0248   59.6254   63.8218 C   0  0  0  0  0  0  0  0  0  0  0  0
  -50.7110   59.6582   62.3251 C   0  0  0  0  0  0  0  0  0  0  0  0
  -50.8082   58.3190   61.6091 C   0  0  0  0  0  0  0  0  0  0  0  0
  -49.7445   58.0790   60.5446 C   0  0  0  0  0  0  0  0  0  0  0  0
  -49.2496   56.6373   60.4920 C   0  0  0  0  0  0  0  0  0  0  0  0
  -48.3281   56.3486   59.3177 C   0  0  0  0  0  0  0  0  0  0  0  0
  -48.4505   57.3071   58.1426 C   0  0  0  0  0  0  0  0  0  0  0  0
  -47.6062   56.9019   56.9736 C   0  0  0  0  0  0  0  0  0  0  0  0
  -41.0574   58.6920   66.1435 O   0  0  0  0  0  0  0  0  0  0  0  0
  -40.5841   60.0496   66.0027 C   0  0  0  0  0  0  0  0  0  0  0  0
  -39.2827   60.1110   65.2313 C   0  0  0  0  0  0  0  0  0  0  0  0
  -39.3433   61.1014   64.1962 O   0  0  0  0  0  0  0  0  0  0  0  0
  -39.4639   61.9778   64.5938 H   0  0  0  0  0  0  0  0  0  0  0  0
  -38.0933   60.3862   66.1212 C   0  0  0  0  0  0  0  0  0  0  0  0
  -37.7999   61.8019   66.2051 O   0  0  0  0  0  0  0  0  0  0  0  0
  -36.6179   62.6982   65.5925 P   0  0  0  0  0  0  0  0  0  0  0  0
  -36.3822   63.8822   66.5287 O   0  0  0  0  0  0  0  0  0  0  0  0
  -37.0503   63.2175   64.2766 O   0  0  0  0  0  0  0  0  0  0  0  0
  -37.8747   63.7179   64.3816 H   0  0  0  0  0  0  0  0  0  0  0  0
  -35.2202   61.8416   65.4591 O   0  0  0  0  0  0  0  0  0  0  0  0
  -34.8666   60.9512   64.3659 C   0  0  0  0  0  0  0  0  0  0  0  0
  -34.8467   59.5206   64.8443 C   0  0  0  0  0  0  0  0  0  0  0  0
  -35.2409   58.4622   63.8307 N   0  0  0  0  0  0  0  0  0  0  0  0
  -35.5344   57.1656   64.5145 C   0  0  0  0  0  0  0  0  0  0  0  0
  -34.1053   58.2642   62.8811 C   0  0  0  0  0  0  0  0  0  0  0  0
  -36.4596   58.8937   63.0658 C   0  0  0  0  0  0  0  0  0  0  0  0
 34 33  1  0  0  0
 34 35  1  0  0  0
 34 36  1  0  0  0
 34 37  1  0  0  0
 22 23  1  0  0  0
 22 25  1  0  0  0
 22 21  1  0  0  0
 23 24  1  0  0  0
 27 26  1  0  0  0
 27 28  2  0  0  0
 27 31  1  0  0  0
 27 29  1  0  0  0
 25 26  1  0  0  0
 32 33  1  0  0  0
 32 31  1  0  0  0
 29 30  1  0  0  0
 20 21  1  0  0  0
 20  2  1  0  0  0
  1  2  2  0  0  0
  2  3  1  0  0  0
  3  4  1  0  0  0
  4  5  1  0  0  0
  5  6  1  0  0  0
  6  7  1  0  0  0
  7  8  1  0  0  0
  8  9  1  0  0  0
  9 10  1  0  0  0
 10 11  2  0  0  0
 11 12  1  0  0  0
 12 13  1  0  0  0
 13 14  1  0  0  0
 14 15  1  0  0  0
 15 16  1  0  0  0
 16 17  1  0  0  0
 17 18  1  0  0  0
 18 19  1  0  0  0
M  CHG 1  28  -1
M  END
> <minimizedAffinity>
-7.95147

> <CNNscore>
0.8032895327

> <CNNaffinity>
6.6970567703

> <CNN_VS>
5.3796753883

> <CNNaffinity_variance>
0.0376048274

$$$$
/media/chris/experiments/cd1a-new-docking/inputs/ligands/4x6e_ligand.pdb


 37 36  0  0  0  0  0  0  0  0999 V2000
  -41.0088   55.7155   62.4515 O   0  0  0  0  0  0  0  0  0  0  0  0
  -40.8415   56.7995   62.9531 C   0  0  0  0  0  0  0  0  0  0  0  0
  -41.2801   57.1943   64.3299 C   0  0  0  0  0  0  0  0  0  0  0  0
  -42.6226   57.9154   64.3477 C   0  0  0  0  0  0  0  0  0  0  0  0
  -43.7125   57.1885   65.1165 C   0  0  0  0  0  0  0  0  0  0  0  0
  -45.0039   57.9795   65.2278 C   0  0  0  0  0  0  0  0  0  0  0  0
  -45.7968   57.6457   66.4797 C   0  0  0  0  0  0  0  0  0  0  0  0
  -46.6337   58.8124   66.9549 C   0  0  0  0  0  0  0  0  0  0  0  0
  -47.7651   59.2023   66.0254 C   0  0  0  0  0  0  0  0  0  0  0  0
  -48.7952   58.1524   65.8552 C   0  0  0  0  0  0  0  0  0  0  0  0
  -49.9780   58.3094   65.2976 C   0  0  0  0  0  0  0  0  0  0  0  0
  -50.5275   59.5545   64.6809 C   0  0  0  0  0  0  0  0  0  0  0  0
  -51.0208   59.2662   63.2620 C   0  0  0  0  0  0  0  0  0  0  0  0
  -50.1231   58.3611   62.4312 C   0  0  0  0  0  0  0  0  0  0  0  0
  -50.7273   57.8873   61.1148 C   0  0  0  0  0  0  0  0  0  0  0  0
  -49.9987   58.4175   59.8843 C   0  0  0  0  0  0  0  0  0  0  0  0
  -49.4016   57.3272   59.0089 C   0  0  0  0  0  0  0  0  0  0  0  0
  -48.2690   56.5318   59.6408 C   0  0  0  0  0  0  0  0  0  0  0  0
  -47.4109   55.8394   58.6269 C   0  0  0  0  0  0  0  0  0  0  0  0
  -40.2209   57.8183   62.3510 O   0  0  0  0  0  0  0  0  0  0  0  0
  -39.5146   57.5451   61.1208 C   0  0  0  0  0  0  0  0  0  0  0  0
  -38.5300   58.6451   60.7851 C   0  0  0  0  0  0  0  0  0  0  0  0
  -38.0181   58.4904   59.4546 O   0  0  0  0  0  0  0  0  0  0  0  0
  -38.7444   58.5734   58.8170 H   0  0  0  0  0  0  0  0  0  0  0  0
  -39.1273   60.0245   60.9366 C   0  0  0  0  0  0  0  0  0  0  0  0
  -38.4161   60.8139   61.9208 O   0  0  0  0  0  0  0  0  0  0  0  0
  -38.2973   60.6985   63.5172 P   0  0  0  0  0  0  0  0  0  0  0  0
  -37.3003   59.5877   63.8427 O   0  0  0  0  0  0  0  0  0  0  0  0
  -39.6185   60.3203   64.0645 O   0  0  0  0  0  0  0  0  0  0  0  0
  -39.9119   59.4905   63.6567 H   0  0  0  0  0  0  0  0  0  0  0  0
  -37.7619   62.1035   64.1839 O   0  0  0  0  0  0  0  0  0  0  0  0
  -36.5067   62.7692   63.8769 C   0  0  0  0  0  0  0  0  0  0  0  0
  -35.4296   62.3169   64.8315 C   0  0  0  0  0  0  0  0  0  0  0  0
  -34.8499   63.3771   65.7496 N   0  0  0  0  0  0  0  0  0  0  0  0
  -34.2972   64.5148   64.9526 C   0  0  0  0  0  0  0  0  0  0  0  0
  -33.7480   62.7646   66.5502 C   0  0  0  0  0  0  0  0  0  0  0  0
  -35.9063   63.9040   66.6785 C   0  0  0  0  0  0  0  0  0  0  0  0
 34 33  1  0  0  0
 34 35  1  0  0  0
 34 36  1  0  0  0
 34 37  1  0  0  0
 22 23  1  0  0  0
 22 25  1  0  0  0
 22 21  1  0  0  0
 23 24  1  0  0  0
 27 26  1  0  0  0
 27 28  2  0  0  0
 27 31  1  0  0  0
 27 29  1  0  0  0
 25 26  1  0  0  0
 32 33  1  0  0  0
 32 31  1  0  0  0
 29 30  1  0  0  0
 20 21  1  0  0  0
 20  2  1  0  0  0
  1  2  2  0  0  0
  2  3  1  0  0  0
  3  4  1  0  0  0
  4  5  1  0  0  0
  5  6  1  0  0  0
  6  7  1  0  0  0
  7  8  1  0  0  0
  8  9  1  0  0  0
  9 10  1  0  0  0
 10 11  2  0  0  0
 11 12  1  0  0  0
 12 13  1  0  0  0
 13 14  1  0  0  0
 14 15  1  0  0  0
 15 16  1  0  0  0
 16 17  1  0  0  0
 17 18  1  0  0  0
 18 19  1  0  0  0
M  CHG 1  28  -1
M  END
> <minimizedAffinity>
-7.83100

> <CNNscore>
0.7852743268

> <CNNaffinity>
6.8440093994

> <CNN_VS>
5.3744249344

> <CNNaffinity_variance>
0.5329294801

$$$$
/media/chris/experiments/cd1a-new-docking/inputs/ligands/4x6e_ligand.pdb


 37 36  0  0  0  0  0  0  0  0999 V2000
  -41.5962   61.3082   64.2524 O   0  0  0  0  0  0  0  0  0  0  0  0
  -42.0614   60.4939   63.4940 C   0  0  0  0  0  0  0  0  0  0  0  0
  -43.3759   60.6199   62.7869 C   0  0  0  0  0  0  0  0  0  0  0  0
  -44.5717   60.5650   63.7302 C   0  0  0  0  0  0  0  0  0  0  0  0
  -44.6552   59.2955   64.5602 C   0  0  0  0  0  0  0  0  0  0  0  0
  -45.1420   59.5321   65.9790 C   0  0  0  0  0  0  0  0  0  0  0  0
  -46.6455   59.7321   66.0635 C   0  0  0  0  0  0  0  0  0  0  0  0
  -47.3860   58.4279   66.2586 C   0  0  0  0  0  0  0  0  0  0  0  0
  -48.3475   58.0708   65.1432 C   0  0  0  0  0  0  0  0  0  0  0  0
  -49.7650   58.3689   65.4502 C   0  0  0  0  0  0  0  0  0  0  0  0
  -50.5700   59.1286   64.7363 C   0  0  0  0  0  0  0  0  0  0  0  0
  -50.2541   59.8204   63.4502 C   0  0  0  0  0  0  0  0  0  0  0  0
  -50.9952   59.1469   62.2939 C   0  0  0  0  0  0  0  0  0  0  0  0
  -50.1623   58.8919   61.0462 C   0  0  0  0  0  0  0  0  0  0  0  0
  -49.9920   57.4240   60.6743 C   0  0  0  0  0  0  0  0  0  0  0  0
  -49.0982   57.2033   59.4583 C   0  0  0  0  0  0  0  0  0  0  0  0
  -48.3041   55.9078   59.5089 C   0  0  0  0  0  0  0  0  0  0  0  0
  -47.0725   55.8634   58.6168 C   0  0  0  0  0  0  0  0  0  0  0  0
  -47.4117   55.8985   57.1583 C   0  0  0  0  0  0  0  0  0  0  0  0
  -41.4589   59.3493   63.1586 O   0  0  0  0  0  0  0  0  0  0  0  0
  -41.4560   58.9723   61.7641 C   0  0  0  0  0  0  0  0  0  0  0  0
  -40.0540   58.7013   61.2610 C   0  0  0  0  0  0  0  0  0  0  0  0
  -40.0661   57.7494   60.1887 O   0  0  0  0  0  0  0  0  0  0  0  0
  -40.5575   58.1156   59.4368 H   0  0  0  0  0  0  0  0  0  0  0  0
  -39.3466   59.9577   60.8098 C   0  0  0  0  0  0  0  0  0  0  0  0
  -38.1461   60.2060   61.5809 O   0  0  0  0  0  0  0  0  0  0  0  0
  -37.8762   60.2967   63.1604 P   0  0  0  0  0  0  0  0  0  0  0  0
  -38.1045   58.9121   63.7642 O   0  0  0  0  0  0  0  0  0  0  0  0
  -38.8522   61.2361   63.7547 O   0  0  0  0  0  0  0  0  0  0  0  0
  -39.7527   60.9377   63.5521 H   0  0  0  0  0  0  0  0  0  0  0  0
  -36.3331   60.7670   63.4812 O   0  0  0  0  0  0  0  0  0  0  0  0
  -35.7574   60.9599   64.8020 C   0  0  0  0  0  0  0  0  0  0  0  0
  -34.6528   61.9858   64.7445 C   0  0  0  0  0  0  0  0  0  0  0  0
  -34.9121   63.3005   65.4566 N   0  0  0  0  0  0  0  0  0  0  0  0
  -34.3378   63.2709   66.8365 C   0  0  0  0  0  0  0  0  0  0  0  0
  -36.3878   63.5103   65.5492 C   0  0  0  0  0  0  0  0  0  0  0  0
  -34.2941   64.4407   64.6986 C   0  0  0  0  0  0  0  0  0  0  0  0
 34 33  1  0  0  0
 34 35  1  0  0  0
 34 36  1  0  0  0
 34 37  1  0  0  0
 22 23  1  0  0  0
 22 25  1  0  0  0
 22 21  1  0  0  0
 23 24  1  0  0  0
 27 26  1  0  0  0
 27 28  2  0  0  0
 27 31  1  0  0  0
 27 29  1  0  0  0
 25 26  1  0  0  0
 32 33  1  0  0  0
 32 31  1  0  0  0
 29 30  1  0  0  0
 20 21  1  0  0  0
 20  2  1  0  0  0
  1  2  2  0  0  0
  2  3  1  0  0  0
  3  4  1  0  0  0
  4  5  1  0  0  0
  5  6  1  0  0  0
  6  7  1  0  0  0
  7  8  1  0  0  0
  8  9  1  0  0  0
  9 10  1  0  0  0
 10 11  2  0  0  0
 11 12  1  0  0  0
 12 13  1  0  0  0
 13 14  1  0  0  0
 14 15  1  0  0  0
 15 16  1  0  0  0
 16 17  1  0  0  0
 17 18  1  0  0  0
 18 19  1  0  0  0
M  CHG 1  28  -1
M  END
> <minimizedAffinity>
-7.88523

> <CNNscore>
0.7383109331

> <CNNaffinity>
6.7673463821

> <CNN_VS>
4.9964056015

> <CNNaffinity_variance>
0.4872706831

$$$$
/media/chris/experiments/cd1a-new-docking/inputs/ligands/4x6e_ligand.pdb


 37 36  0  0  0  0  0  0  0  0999 V2000
  -42.5679   55.7455   64.9517 O   0  0  0  0  0  0  0  0  0  0  0  0
  -42.6635   56.9451   65.0322 C   0  0  0  0  0  0  0  0  0  0  0  0
  -43.8731   57.7451   64.6570 C   0  0  0  0  0  0  0  0  0  0  0  0
  -44.9521   57.7407   65.7332 C   0  0  0  0  0  0  0  0  0  0  0  0
  -45.2605   59.1097   66.3147 C   0  0  0  0  0  0  0  0  0  0  0  0
  -46.7459   59.4187   66.3783 C   0  0  0  0  0  0  0  0  0  0  0  0
  -47.6110   58.1700   66.3769 C   0  0  0  0  0  0  0  0  0  0  0  0
  -48.6971   58.2277   65.3259 C   0  0  0  0  0  0  0  0  0  0  0  0
  -49.2406   59.6150   65.0502 C   0  0  0  0  0  0  0  0  0  0  0  0
  -48.8585   60.1609   63.7280 C   0  0  0  0  0  0  0  0  0  0  0  0
  -49.5718   60.0880   62.6232 C   0  0  0  0  0  0  0  0  0  0  0  0
  -50.9285   59.4829   62.4626 C   0  0  0  0  0  0  0  0  0  0  0  0
  -50.8051   58.0056   62.0857 C   0  0  0  0  0  0  0  0  0  0  0  0
  -50.8659   57.7059   60.5950 C   0  0  0  0  0  0  0  0  0  0  0  0
  -49.5117   57.5626   59.9110 C   0  0  0  0  0  0  0  0  0  0  0  0
  -48.9725   56.1359   59.9200 C   0  0  0  0  0  0  0  0  0  0  0  0
  -47.6265   55.9855   59.2294 C   0  0  0  0  0  0  0  0  0  0  0  0
  -47.6874   55.7572   57.7264 C   0  0  0  0  0  0  0  0  0  0  0  0
  -47.4567   57.0108   56.9399 C   0  0  0  0  0  0  0  0  0  0  0  0
  -41.6957   57.7472   65.4857 O   0  0  0  0  0  0  0  0  0  0  0  0
  -41.2278   58.7990   64.6131 C   0  0  0  0  0  0  0  0  0  0  0  0
  -40.7111   59.9871   65.3966 C   0  0  0  0  0  0  0  0  0  0  0  0
  -41.6980   60.4632   66.3216 O   0  0  0  0  0  0  0  0  0  0  0  0
  -41.8901   59.7715   66.9739 H   0  0  0  0  0  0  0  0  0  0  0  0
  -39.4322   59.6800   66.1400 C   0  0  0  0  0  0  0  0  0  0  0  0
  -38.5712   60.8408   66.2323 O   0  0  0  0  0  0  0  0  0  0  0  0
  -37.4643   61.4464   65.2404 P   0  0  0  0  0  0  0  0  0  0  0  0
  -36.1457   60.7178   65.4945 O   0  0  0  0  0  0  0  0  0  0  0  0
  -37.2785   62.8796   65.5561 O   0  0  0  0  0  0  0  0  0  0  0  0
  -37.0286   62.9755   66.4885 H   0  0  0  0  0  0  0  0  0  0  0  0
  -37.8896   61.2388   63.6652 O   0  0  0  0  0  0  0  0  0  0  0  0
  -37.7691   60.0059   62.9047 C   0  0  0  0  0  0  0  0  0  0  0  0
  -38.8150   59.9591   61.8184 C   0  0  0  0  0  0  0  0  0  0  0  0
  -39.0051   58.6260   61.1187 N   0  0  0  0  0  0  0  0  0  0  0  0
  -38.1155   58.5316   59.9210 C   0  0  0  0  0  0  0  0  0  0  0  0
  -40.4275   58.5174   60.6768 C   0  0  0  0  0  0  0  0  0  0  0  0
  -38.6857   57.4920   62.0506 C   0  0  0  0  0  0  0  0  0  0  0  0
 34 33  1  0  0  0
 34 35  1  0  0  0
 34 36  1  0  0  0
 34 37  1  0  0  0
 22 23  1  0  0  0
 22 25  1  0  0  0
 22 21  1  0  0  0
 23 24  1  0  0  0
 27 26  1  0  0  0
 27 28  2  0  0  0
 27 31  1  0  0  0
 27 29  1  0  0  0
 25 26  1  0  0  0
 32 33  1  0  0  0
 32 31  1  0  0  0
 29 30  1  0  0  0
 20 21  1  0  0  0
 20  2  1  0  0  0
  1  2  2  0  0  0
  2  3  1  0  0  0
  3  4  1  0  0  0
  4  5  1  0  0  0
  5  6  1  0  0  0
  6  7  1  0  0  0
  7  8  1  0  0  0
  8  9  1  0  0  0
  9 10  1  0  0  0
 10 11  2  0  0  0
 11 12  1  0  0  0
 12 13  1  0  0  0
 13 14  1  0  0  0
 14 15  1  0  0  0
 15 16  1  0  0  0
 16 17  1  0  0  0
 17 18  1  0  0  0
 18 19  1  0  0  0
M  CHG 1  28  -1
M  END
> <minimizedAffinity>
-7.96254

> <CNNscore>
0.7224083543

> <CNNaffinity>
6.8890275955

> <CNN_VS>
4.9766912460

> <CNNaffinity_variance>
0.2265308648

$$$$
/media/chris/experiments/cd1a-new-docking/inputs/ligands/4x6e_ligand.pdb


 37 36  0  0  0  0  0  0  0  0999 V2000
  -39.3450   61.0501   64.6290 O   0  0  0  0  0  0  0  0  0  0  0  0
  -40.2195   60.2220   64.5648 C   0  0  0  0  0  0  0  0  0  0  0  0
  -41.6317   60.4156   65.0250 C   0  0  0  0  0  0  0  0  0  0  0  0
  -41.8044   60.2239   66.5270 C   0  0  0  0  0  0  0  0  0  0  0  0
  -42.4263   58.8949   66.9200 C   0  0  0  0  0  0  0  0  0  0  0  0
  -43.3537   58.3249   65.8612 C   0  0  0  0  0  0  0  0  0  0  0  0
  -44.3489   57.3240   66.4225 C   0  0  0  0  0  0  0  0  0  0  0  0
  -45.6946   57.4097   65.7375 C   0  0  0  0  0  0  0  0  0  0  0  0
  -46.8679   57.6362   66.6692 C   0  0  0  0  0  0  0  0  0  0  0  0
  -48.1906   57.4612   66.0272 C   0  0  0  0  0  0  0  0  0  0  0  0
  -48.9062   58.4072   65.4548 C   0  0  0  0  0  0  0  0  0  0  0  0
  -48.5344   59.8448   65.2881 C   0  0  0  0  0  0  0  0  0  0  0  0
  -49.3218   60.4617   64.1309 C   0  0  0  0  0  0  0  0  0  0  0  0
  -50.7678   60.0040   64.0091 C   0  0  0  0  0  0  0  0  0  0  0  0
  -51.1766   59.5229   62.6221 C   0  0  0  0  0  0  0  0  0  0  0  0
  -50.7635   58.0841   62.3301 C   0  0  0  0  0  0  0  0  0  0  0  0
  -50.8760   57.7003   60.8632 C   0  0  0  0  0  0  0  0  0  0  0  0
  -49.9090   58.4108   59.9280 C   0  0  0  0  0  0  0  0  0  0  0  0
  -49.2720   57.4835   58.9391 C   0  0  0  0  0  0  0  0  0  0  0  0
  -40.0583   58.9972   64.0555 O   0  0  0  0  0  0  0  0  0  0  0  0
  -39.0281   58.1602   64.6255 C   0  0  0  0  0  0  0  0  0  0  0  0
  -38.1407   57.5591   63.5561 C   0  0  0  0  0  0  0  0  0  0  0  0
  -38.3321   58.2180   62.2970 O   0  0  0  0  0  0  0  0  0  0  0  0
  -38.0691   59.1483   62.3756 H   0  0  0  0  0  0  0  0  0  0  0  0
  -36.6767   57.5993   63.9270 C   0  0  0  0  0  0  0  0  0  0  0  0
  -36.3356   58.8117   64.6418 O   0  0  0  0  0  0  0  0  0  0  0  0
  -35.4420   60.0845   64.2450 P   0  0  0  0  0  0  0  0  0  0  0  0
  -36.3481   61.1119   63.5687 O   0  0  0  0  0  0  0  0  0  0  0  0
  -34.4107   59.6556   63.2751 O   0  0  0  0  0  0  0  0  0  0  0  0
  -34.8399   59.2528   62.5040 H   0  0  0  0  0  0  0  0  0  0  0  0
  -34.7554   60.7746   65.5708 O   0  0  0  0  0  0  0  0  0  0  0  0
  -35.0318   62.1087   66.0775 C   0  0  0  0  0  0  0  0  0  0  0  0
  -33.7523   62.7728   66.5226 C   0  0  0  0  0  0  0  0  0  0  0  0
  -33.3693   64.0538   65.8049 N   0  0  0  0  0  0  0  0  0  0  0  0
  -33.6006   65.2379   66.6877 C   0  0  0  0  0  0  0  0  0  0  0  0
  -34.2158   64.1872   64.5818 C   0  0  0  0  0  0  0  0  0  0  0  0
  -31.9213   64.0215   65.4067 C   0  0  0  0  0  0  0  0  0  0  0  0
 34 33  1  0  0  0
 34 35  1  0  0  0
 34 36  1  0  0  0
 34 37  1  0  0  0
 22 23  1  0  0  0
 22 25  1  0  0  0
 22 21  1  0  0  0
 23 24  1  0  0  0
 27 26  1  0  0  0
 27 28  2  0  0  0
 27 31  1  0  0  0
 27 29  1  0  0  0
 25 26  1  0  0  0
 32 33  1  0  0  0
 32 31  1  0  0  0
 29 30  1  0  0  0
 20 21  1  0  0  0
 20  2  1  0  0  0
  1  2  2  0  0  0
  2  3  1  0  0  0
  3  4  1  0  0  0
  4  5  1  0  0  0
  5  6  1  0  0  0
  6  7  1  0  0  0
  7  8  1  0  0  0
  8  9  1  0  0  0
  9 10  1  0  0  0
 10 11  2  0  0  0
 11 12  1  0  0  0
 12 13  1  0  0  0
 13 14  1  0  0  0
 14 15  1  0  0  0
 15 16  1  0  0  0
 16 17  1  0  0  0
 17 18  1  0  0  0
 18 19  1  0  0  0
M  CHG 1  28  -1
M  END
> <minimizedAffinity>
-7.67135

> <CNNscore>
0.6412687302

> <CNNaffinity>
6.4057030678

> <CNN_VS>
4.1077771187

> <CNNaffinity_variance>
0.4777911603

$$$$
/media/chris/experiments/cd1a-new-docking/inputs/ligands/4x6e_ligand.pdb


 37 36  0  0  0  0  0  0  0  0999 V2000
  -42.4521   55.4578   64.9486 O   0  0  0  0  0  0  0  0  0  0  0  0
  -42.4746   56.5955   64.5490 C   0  0  0  0  0  0  0  0  0  0  0  0
  -43.0004   57.7720   65.3126 C   0  0  0  0  0  0  0  0  0  0  0  0
  -44.1603   57.4178   66.2354 C   0  0  0  0  0  0  0  0  0  0  0  0
  -45.5337   57.6138   65.6166 C   0  0  0  0  0  0  0  0  0  0  0  0
  -45.5529   58.6453   64.5024 C   0  0  0  0  0  0  0  0  0  0  0  0
  -46.3703   59.8775   64.8503 C   0  0  0  0  0  0  0  0  0  0  0  0
  -47.0663   59.7438   66.1864 C   0  0  0  0  0  0  0  0  0  0  0  0
  -48.5593   60.0005   66.1530 C   0  0  0  0  0  0  0  0  0  0  0  0
  -49.3670   58.8154   65.7850 C   0  0  0  0  0  0  0  0  0  0  0  0
  -50.3787   58.7977   64.9419 C   0  0  0  0  0  0  0  0  0  0  0  0
  -50.9095   59.9442   64.1441 C   0  0  0  0  0  0  0  0  0  0  0  0
  -51.1776   59.5043   62.7039 C   0  0  0  0  0  0  0  0  0  0  0  0
  -49.9383   59.2293   61.8648 C   0  0  0  0  0  0  0  0  0  0  0  0
  -49.7453   57.7732   61.4588 C   0  0  0  0  0  0  0  0  0  0  0  0
  -49.8706   57.5378   59.9571 C   0  0  0  0  0  0  0  0  0  0  0  0
  -48.6962   56.7824   59.3556 C   0  0  0  0  0  0  0  0  0  0  0  0
  -48.3065   57.2002   57.9456 C   0  0  0  0  0  0  0  0  0  0  0  0
  -47.6605   56.0930   57.1706 C   0  0  0  0  0  0  0  0  0  0  0  0
  -42.0162   56.9814   63.3545 O   0  0  0  0  0  0  0  0  0  0  0  0
  -41.9851   58.3973   63.0697 C   0  0  0  0  0  0  0  0  0  0  0  0
  -42.2976   58.6822   61.6159 C   0  0  0  0  0  0  0  0  0  0  0  0
  -42.2696   60.0909   61.3492 O   0  0  0  0  0  0  0  0  0  0  0  0
  -41.3752   60.4319   61.5057 H   0  0  0  0  0  0  0  0  0  0  0  0
  -41.3568   57.9728   60.6705 C   0  0  0  0  0  0  0  0  0  0  0  0
  -39.9937   57.9823   61.1596 O   0  0  0  0  0  0  0  0  0  0  0  0
  -38.7915   59.0315   60.9875 P   0  0  0  0  0  0  0  0  0  0  0  0
  -39.3153   60.2335   60.2034 O   0  0  0  0  0  0  0  0  0  0  0  0
  -37.7128   58.3916   60.2030 O   0  0  0  0  0  0  0  0  0  0  0  0
  -38.0663   58.0942   59.3501 H   0  0  0  0  0  0  0  0  0  0  0  0
  -38.2333   59.5516   62.4446 O   0  0  0  0  0  0  0  0  0  0  0  0
  -38.8887   60.5141   63.3147 C   0  0  0  0  0  0  0  0  0  0  0  0
  -37.9084   61.5749   63.7506 C   0  0  0  0  0  0  0  0  0  0  0  0
  -37.0884   61.2704   64.9906 N   0  0  0  0  0  0  0  0  0  0  0  0
  -37.9195   60.5522   66.0048 C   0  0  0  0  0  0  0  0  0  0  0  0
  -36.6131   62.5590   65.5769 C   0  0  0  0  0  0  0  0  0  0  0  0
  -35.9035   60.4156   64.6415 C   0  0  0  0  0  0  0  0  0  0  0  0
 34 33  1  0  0  0
 34 35  1  0  0  0
 34 36  1  0  0  0
 34 37  1  0  0  0
 22 23  1  0  0  0
 22 25  1  0  0  0
 22 21  1  0  0  0
 23 24  1  0  0  0
 27 26  1  0  0  0
 27 28  2  0  0  0
 27 31  1  0  0  0
 27 29  1  0  0  0
 25 26  1  0  0  0
 32 33  1  0  0  0
 32 31  1  0  0  0
 29 30  1  0  0  0
 20 21  1  0  0  0
 20  2  1  0  0  0
  1  2  2  0  0  0
  2  3  1  0  0  0
  3  4  1  0  0  0
  4  5  1  0  0  0
  5  6  1  0  0  0
  6  7  1  0  0  0
  7  8  1  0  0  0
  8  9  1  0  0  0
  9 10  1  0  0  0
 10 11  2  0  0  0
 11 12  1  0  0  0
 12 13  1  0  0  0
 13 14  1  0  0  0
 14 15  1  0  0  0
 15 16  1  0  0  0
 16 17  1  0  0  0
 17 18  1  0  0  0
 18 19  1  0  0  0
M  CHG 1  28  -1
M  END
> <minimizedAffinity>
-7.83530

> <CNNscore>
0.6377100348

> <CNNaffinity>
6.8274550438

> <CNN_VS>
4.3539366722

> <CNNaffinity_variance>
0.3881030679

$$$$
/media/chris/experiments/cd1a-new-docking/inputs/ligands/4x6e_ligand.pdb


 37 36  0  0  0  0  0  0  0  0999 V2000
  -41.6441   61.2409   63.9405 O   0  0  0  0  0  0  0  0  0  0  0  0
  -42.3532   60.2821   63.7603 C   0  0  0  0  0  0  0  0  0  0  0  0
  -43.8463   60.3179   63.6456 C   0  0  0  0  0  0  0  0  0  0  0  0
  -44.4756   58.9316   63.5764 C   0  0  0  0  0  0  0  0  0  0  0  0
  -45.8071   58.8129   64.2978 C   0  0  0  0  0  0  0  0  0  0  0  0
  -45.7280   58.0102   65.5844 C   0  0  0  0  0  0  0  0  0  0  0  0
  -46.5891   58.5860   66.6955 C   0  0  0  0  0  0  0  0  0  0  0  0
  -47.2332   59.8958   66.2995 C   0  0  0  0  0  0  0  0  0  0  0  0
  -48.7475   59.8695   66.2516 C   0  0  0  0  0  0  0  0  0  0  0  0
  -49.3098   58.6612   65.6066 C   0  0  0  0  0  0  0  0  0  0  0  0
  -50.2341   58.6416   64.6685 C   0  0  0  0  0  0  0  0  0  0  0  0
  -50.8881   59.8184   64.0205 C   0  0  0  0  0  0  0  0  0  0  0  0
  -51.1756   59.5169   62.5487 C   0  0  0  0  0  0  0  0  0  0  0  0
  -50.7846   58.1229   62.0804 C   0  0  0  0  0  0  0  0  0  0  0  0
  -50.1466   58.0632   60.6978 C   0  0  0  0  0  0  0  0  0  0  0  0
  -49.7102   56.6603   60.2882 C   0  0  0  0  0  0  0  0  0  0  0  0
  -48.4163   56.6299   59.4906 C   0  0  0  0  0  0  0  0  0  0  0  0
  -48.4858   57.2692   58.1118 C   0  0  0  0  0  0  0  0  0  0  0  0
  -47.4923   56.6886   57.1529 C   0  0  0  0  0  0  0  0  0  0  0  0
  -41.9044   59.0311   63.6222 O   0  0  0  0  0  0  0  0  0  0  0  0
  -41.1519   58.4604   64.7153 C   0  0  0  0  0  0  0  0  0  0  0  0
  -39.8809   57.7946   64.2317 C   0  0  0  0  0  0  0  0  0  0  0  0
  -39.7891   57.8365   62.8013 O   0  0  0  0  0  0  0  0  0  0  0  0
  -39.7399   58.7596   62.5074 H   0  0  0  0  0  0  0  0  0  0  0  0
  -38.6389   58.4094   64.8333 C   0  0  0  0  0  0  0  0  0  0  0  0
  -38.6133   59.8473   64.6629 O   0  0  0  0  0  0  0  0  0  0  0  0
  -37.8854   60.7953   63.5917 P   0  0  0  0  0  0  0  0  0  0  0  0
  -38.7820   60.8993   62.3591 O   0  0  0  0  0  0  0  0  0  0  0  0
  -36.6078   60.1656   63.1926 O   0  0  0  0  0  0  0  0  0  0  0  0
  -36.7807   59.2783   62.8408 H   0  0  0  0  0  0  0  0  0  0  0  0
  -37.6368   62.3050   64.1952 O   0  0  0  0  0  0  0  0  0  0  0  0
  -36.6795   62.6633   65.2287 C   0  0  0  0  0  0  0  0  0  0  0  0
  -35.9758   63.9473   64.8651 C   0  0  0  0  0  0  0  0  0  0  0  0
  -34.4767   63.8592   64.6463 N   0  0  0  0  0  0  0  0  0  0  0  0
  -34.0840   62.4682   64.2642 C   0  0  0  0  0  0  0  0  0  0  0  0
  -33.7862   64.2265   65.9185 C   0  0  0  0  0  0  0  0  0  0  0  0
  -34.0473   64.8006   63.5573 C   0  0  0  0  0  0  0  0  0  0  0  0
 34 33  1  0  0  0
 34 35  1  0  0  0
 34 36  1  0  0  0
 34 37  1  0  0  0
 22 23  1  0  0  0
 22 25  1  0  0  0
 22 21  1  0  0  0
 23 24  1  0  0  0
 27 26  1  0  0  0
 27 28  2  0  0  0
 27 31  1  0  0  0
 27 29  1  0  0  0
 25 26  1  0  0  0
 32 33  1  0  0  0
 32 31  1  0  0  0
 29 30  1  0  0  0
 20 21  1  0  0  0
 20  2  1  0  0  0
  1  2  2  0  0  0
  2  3  1  0  0  0
  3  4  1  0  0  0
  4  5  1  0  0  0
  5  6  1  0  0  0
  6  7  1  0  0  0
  7  8  1  0  0  0
  8  9  1  0  0  0
  9 10  1  0  0  0
 10 11  2  0  0  0
 11 12  1  0  0  0
 12 13  1  0  0  0
 13 14  1  0  0  0
 14 15  1  0  0  0
 15 16  1  0  0  0
 16 17  1  0  0  0
 17 18  1  0  0  0
 18 19  1  0  0  0
M  CHG 1  28  -1
M  END
> <minimizedAffinity>
-7.86413

> <CNNscore>
0.6352332830

> <CNNaffinity>
6.4614114761

> <CNN_VS>
4.1045036316

> <CNNaffinity_variance>
0.1869871318

$$$$
/media/chris/experiments/cd1a-new-docking/inputs/ligands/4x6e_ligand.pdb


 37 36  0  0  0  0  0  0  0  0999 V2000
  -42.6949   60.6371   64.0069 O   0  0  0  0  0  0  0  0  0  0  0  0
  -43.5323   59.7705   64.0554 C   0  0  0  0  0  0  0  0  0  0  0  0
  -44.7076   59.7521   64.9838 C   0  0  0  0  0  0  0  0  0  0  0  0
  -45.3669   58.3821   65.0892 C   0  0  0  0  0  0  0  0  0  0  0  0
  -46.8853   58.4191   65.1104 C   0  0  0  0  0  0  0  0  0  0  0  0
  -47.4575   59.0218   66.3813 C   0  0  0  0  0  0  0  0  0  0  0  0
  -48.5160   60.0775   66.1115 C   0  0  0  0  0  0  0  0  0  0  0  0
  -48.7333   60.3047   64.6321 C   0  0  0  0  0  0  0  0  0  0  0  0
  -50.1742   60.5500   64.2325 C   0  0  0  0  0  0  0  0  0  0  0  0
  -50.8591   59.3578   63.6829 C   0  0  0  0  0  0  0  0  0  0  0  0
  -50.8416   58.9638   62.4263 C   0  0  0  0  0  0  0  0  0  0  0  0
  -50.1040   59.5970   61.2915 C   0  0  0  0  0  0  0  0  0  0  0  0
  -49.9436   58.5977   60.1447 C   0  0  0  0  0  0  0  0  0  0  0  0
  -50.3453   57.1658   60.4667 C   0  0  0  0  0  0  0  0  0  0  0  0
  -49.2912   56.1132   60.1454 C   0  0  0  0  0  0  0  0  0  0  0  0
  -48.0278   56.6891   59.5143 C   0  0  0  0  0  0  0  0  0  0  0  0
  -47.1935   55.6613   58.7665 C   0  0  0  0  0  0  0  0  0  0  0  0
  -46.9364   55.9735   57.2999 C   0  0  0  0  0  0  0  0  0  0  0  0
  -48.0247   56.7974   56.6832 C   0  0  0  0  0  0  0  0  0  0  0  0
  -43.5420   58.6903   63.2688 O   0  0  0  0  0  0  0  0  0  0  0  0
  -42.2696   58.1555   62.8423 C   0  0  0  0  0  0  0  0  0  0  0  0
  -42.1671   58.0926   61.3330 C   0  0  0  0  0  0  0  0  0  0  0  0
  -42.1843   59.4070   60.7600 O   0  0  0  0  0  0  0  0  0  0  0  0
  -41.4077   59.9024   61.0637 H   0  0  0  0  0  0  0  0  0  0  0  0
  -40.9333   57.3567   60.8655 C   0  0  0  0  0  0  0  0  0  0  0  0
  -39.7208   57.9540   61.3855 O   0  0  0  0  0  0  0  0  0  0  0  0
  -38.7372   59.0817   60.8052 P   0  0  0  0  0  0  0  0  0  0  0  0
  -39.5869   60.2628   60.3394 O   0  0  0  0  0  0  0  0  0  0  0  0
  -38.0193   58.5283   59.6362 O   0  0  0  0  0  0  0  0  0  0  0  0
  -38.6621   58.2257   58.9757 H   0  0  0  0  0  0  0  0  0  0  0  0
  -37.6817   59.6077   61.9518 O   0  0  0  0  0  0  0  0  0  0  0  0
  -37.6504   59.1824   63.3415 C   0  0  0  0  0  0  0  0  0  0  0  0
  -36.3282   59.5483   63.9690 C   0  0  0  0  0  0  0  0  0  0  0  0
  -35.3078   58.4324   64.0972 N   0  0  0  0  0  0  0  0  0  0  0  0
  -35.9718   57.1616   64.5203 C   0  0  0  0  0  0  0  0  0  0  0  0
  -34.3017   58.8218   65.1299 C   0  0  0  0  0  0  0  0  0  0  0  0
  -34.6116   58.2024   62.7861 C   0  0  0  0  0  0  0  0  0  0  0  0
 34 33  1  0  0  0
 34 35  1  0  0  0
 34 36  1  0  0  0
 34 37  1  0  0  0
 22 23  1  0  0  0
 22 25  1  0  0  0
 22 21  1  0  0  0
 23 24  1  0  0  0
 27 26  1  0  0  0
 27 28  2  0  0  0
 27 31  1  0  0  0
 27 29  1  0  0  0
 25 26  1  0  0  0
 32 33  1  0  0  0
 32 31  1  0  0  0
 29 30  1  0  0  0
 20 21  1  0  0  0
 20  2  1  0  0  0
  1  2  2  0  0  0
  2  3  1  0  0  0
  3  4  1  0  0  0
  4  5  1  0  0  0
  5  6  1  0  0  0
  6  7  1  0  0  0
  7  8  1  0  0  0
  8  9  1  0  0  0
  9 10  1  0  0  0
 10 11  2  0  0  0
 11 12  1  0  0  0
 12 13  1  0  0  0
 13 14  1  0  0  0
 14 15  1  0  0  0
 15 16  1  0  0  0
 16 17  1  0  0  0
 17 18  1  0  0  0
 18 19  1  0  0  0
M  CHG 1  28  -1
M  END
> <minimizedAffinity>
-7.70702

> <CNNscore>
0.6043501496

> <CNNaffinity>
6.5657606125

> <CNN_VS>
3.9680182934

> <CNNaffinity_variance>
0.2951512933

$$$$
