/media/chris/experiments/cd1a-new-docking/inputs/ligands/4x6e_ligand.pdb


 37 36  0  0  0  0  0  0  0  0999 V2000
  -41.8896   60.8495   64.9490 O   0  0  0  0  0  0  0  0  0  0  0  0
  -41.8429   59.6574   64.7719 C   0  0  0  0  0  0  0  0  0  0  0  0
  -42.9356   58.6884   65.1048 C   0  0  0  0  0  0  0  0  0  0  0  0
  -43.9596   58.5325   63.9869 C   0  0  0  0  0  0  0  0  0  0  0  0
  -45.1794   59.4269   64.1273 C   0  0  0  0  0  0  0  0  0  0  0  0
  -45.6830   59.5423   65.5553 C   0  0  0  0  0  0  0  0  0  0  0  0
  -46.8037   58.5659   65.8686 C   0  0  0  0  0  0  0  0  0  0  0  0
  -48.1681   59.2115   65.7736 C   0  0  0  0  0  0  0  0  0  0  0  0
  -49.2079   58.3927   65.0357 C   0  0  0  0  0  0  0  0  0  0  0  0
  -50.4201   59.1549   64.6593 C   0  0  0  0  0  0  0  0  0  0  0  0
  -50.5786   59.8683   63.5636 C   0  0  0  0  0  0  0  0  0  0  0  0
  -49.6012   60.0362   62.4460 C   0  0  0  0  0  0  0  0  0  0  0  0
  -50.2064   59.5280   61.1364 C   0  0  0  0  0  0  0  0  0  0  0  0
  -50.5035   58.0363   61.0910 C   0  0  0  0  0  0  0  0  0  0  0  0
  -49.2857   57.1428   60.8894 C   0  0  0  0  0  0  0  0  0  0  0  0
  -48.8883   56.9754   59.4264 C   0  0  0  0  0  0  0  0  0  0  0  0
  -47.8129   55.9247   59.2003 C   0  0  0  0  0  0  0  0  0  0  0  0
  -47.1237   55.9792   57.8452 C   0  0  0  0  0  0  0  0  0  0  0  0
  -47.6276   57.0954   56.9829 C   0  0  0  0  0  0  0  0  0  0  0  0
  -40.8002   59.0181   64.2337 O   0  0  0  0  0  0  0  0  0  0  0  0
  -39.6077   58.8779   65.0368 C   0  0  0  0  0  0  0  0  0  0  0  0
  -38.7973   60.1565   65.0625 C   0  0  0  0  0  0  0  0  0  0  0  0
  -39.1056   60.9389   66.2242 O   0  0  0  0  0  0  0  0  0  0  0  0
  -38.8578   60.4451   67.0215 H   0  0  0  0  0  0  0  0  0  0  0  0
  -37.3093   59.9017   65.0086 C   0  0  0  0  0  0  0  0  0  0  0  0
  -36.5970   61.0002   64.3896 O   0  0  0  0  0  0  0  0  0  0  0  0
  -36.0046   62.3713   64.9771 P   0  0  0  0  0  0  0  0  0  0  0  0
  -36.6836   62.6493   66.3172 O   0  0  0  0  0  0  0  0  0  0  0  0
  -36.3379   63.4698   64.0440 O   0  0  0  0  0  0  0  0  0  0  0  0
  -37.2992   63.5078   63.9195 H   0  0  0  0  0  0  0  0  0  0  0  0
  -34.3805   62.2718   65.2164 O   0  0  0  0  0  0  0  0  0  0  0  0
  -33.3677   63.0574   64.5310 C   0  0  0  0  0  0  0  0  0  0  0  0
  -32.4491   63.7122   65.5327 C   0  0  0  0  0  0  0  0  0  0  0  0
  -32.6529   65.1973   65.7684 N   0  0  0  0  0  0  0  0  0  0  0  0
  -33.2629   65.8401   64.5644 C   0  0  0  0  0  0  0  0  0  0  0  0
  -31.3240   65.8253   66.0333 C   0  0  0  0  0  0  0  0  0  0  0  0
  -33.5544   65.4243   66.9484 C   0  0  0  0  0  0  0  0  0  0  0  0
 34 33  1  0  0  0
 34 35  1  0  0  0
 34 36  1  0  0  0
 34 37  1  0  0  0
 22 23  1  0  0  0
 22 25  1  0  0  0
 22 21  1  0  0  0
 23 24  1  0  0  0
 27 26  1  0  0  0
 27 28  2  0  0  0
 27 31  1  0  0  0
 27 29  1  0  0  0
 25 26  1  0  0  0
 32 33  1  0  0  0
 32 31  1  0  0  0
 29 30  1  0  0  0
 20 21  1  0  0  0
 20  2  1  0  0  0
  1  2  2  0  0  0
  2  3  1  0  0  0
  3  4  1  0  0  0
  4  5  1  0  0  0
  5  6  1  0  0  0
  6  7  1  0  0  0
  7  8  1  0  0  0
  8  9  1  0  0  0
  9 10  1  0  0  0
 10 11  2  0  0  0
 11 12  1  0  0  0
 12 13  1  0  0  0
 13 14  1  0  0  0
 14 15  1  0  0  0
 15 16  1  0  0  0
 16 17  1  0  0  0
 17 18  1  0  0  0
 18 19  1  0  0  0
M  CHG 1  28  -1
M  END
> <minimizedAffinity>
-7.58596

> <CNNscore>
0.7859178185

> <CNNaffinity>
6.3654065132

> <CNN_VS>
5.0026865005

> <CNNaffinity_variance>
0.3322496712

$$$$
/media/chris/experiments/cd1a-new-docking/inputs/ligands/4x6e_ligand.pdb


 37 36  0  0  0  0  0  0  0  0999 V2000
  -42.2709   57.4774   65.3257 O   0  0  0  0  0  0  0  0  0  0  0  0
  -42.1871   58.4322   66.0579 C   0  0  0  0  0  0  0  0  0  0  0  0
  -43.3276   59.0568   66.8014 C   0  0  0  0  0  0  0  0  0  0  0  0
  -44.3394   59.7360   65.8862 C   0  0  0  0  0  0  0  0  0  0  0  0
  -45.7551   59.1999   66.0127 C   0  0  0  0  0  0  0  0  0  0  0  0
  -46.6221   59.4908   64.8003 C   0  0  0  0  0  0  0  0  0  0  0  0
  -47.7156   58.4571   64.5928 C   0  0  0  0  0  0  0  0  0  0  0  0
  -48.5838   58.2886   65.8197 C   0  0  0  0  0  0  0  0  0  0  0  0
  -50.0741   58.3765   65.5599 C   0  0  0  0  0  0  0  0  0  0  0  0
  -50.5281   59.7074   65.0967 C   0  0  0  0  0  0  0  0  0  0  0  0
  -50.9629   60.0015   63.8888 C   0  0  0  0  0  0  0  0  0  0  0  0
  -51.1343   59.0644   62.7376 C   0  0  0  0  0  0  0  0  0  0  0  0
  -50.1375   59.4050   61.6286 C   0  0  0  0  0  0  0  0  0  0  0  0
  -50.1101   58.4354   60.4562 C   0  0  0  0  0  0  0  0  0  0  0  0
  -49.4364   57.0986   60.7415 C   0  0  0  0  0  0  0  0  0  0  0  0
  -48.6081   56.5723   59.5739 C   0  0  0  0  0  0  0  0  0  0  0  0
  -48.7312   57.4083   58.3098 C   0  0  0  0  0  0  0  0  0  0  0  0
  -47.7021   57.1110   57.2296 C   0  0  0  0  0  0  0  0  0  0  0  0
  -47.0769   55.7584   57.3810 C   0  0  0  0  0  0  0  0  0  0  0  0
  -41.0468   59.0746   66.3272 O   0  0  0  0  0  0  0  0  0  0  0  0
  -40.0109   59.0603   65.3203 C   0  0  0  0  0  0  0  0  0  0  0  0
  -38.6298   59.1116   65.9383 C   0  0  0  0  0  0  0  0  0  0  0  0
  -37.7111   58.2797   65.2168 O   0  0  0  0  0  0  0  0  0  0  0  0
  -37.6152   58.6138   64.3112 H   0  0  0  0  0  0  0  0  0  0  0  0
  -38.0807   60.5169   66.0161 C   0  0  0  0  0  0  0  0  0  0  0  0
  -38.4580   61.3069   64.8624 O   0  0  0  0  0  0  0  0  0  0  0  0
  -37.8805   61.3787   63.3666 P   0  0  0  0  0  0  0  0  0  0  0  0
  -36.8263   60.2842   63.2088 O   0  0  0  0  0  0  0  0  0  0  0  0
  -37.2278   62.6921   63.1733 O   0  0  0  0  0  0  0  0  0  0  0  0
  -36.5344   62.8100   63.8414 H   0  0  0  0  0  0  0  0  0  0  0  0
  -39.0654   61.1382   62.2517 O   0  0  0  0  0  0  0  0  0  0  0  0
  -39.0768   60.1058   61.2285 C   0  0  0  0  0  0  0  0  0  0  0  0
  -40.0098   58.9886   61.6252 C   0  0  0  0  0  0  0  0  0  0  0  0
  -41.4660   59.1503   61.2304 N   0  0  0  0  0  0  0  0  0  0  0  0
  -41.6197   60.2568   60.2369 C   0  0  0  0  0  0  0  0  0  0  0  0
  -42.2579   59.4816   62.4525 C   0  0  0  0  0  0  0  0  0  0  0  0
  -41.9920   57.8795   60.6261 C   0  0  0  0  0  0  0  0  0  0  0  0
 34 33  1  0  0  0
 34 35  1  0  0  0
 34 36  1  0  0  0
 34 37  1  0  0  0
 22 23  1  0  0  0
 22 25  1  0  0  0
 22 21  1  0  0  0
 23 24  1  0  0  0
 27 26  1  0  0  0
 27 28  2  0  0  0
 27 31  1  0  0  0
 27 29  1  0  0  0
 25 26  1  0  0  0
 32 33  1  0  0  0
 32 31  1  0  0  0
 29 30  1  0  0  0
 20 21  1  0  0  0
 20  2  1  0  0  0
  1  2  2  0  0  0
  2  3  1  0  0  0
  3  4  1  0  0  0
  4  5  1  0  0  0
  5  6  1  0  0  0
  6  7  1  0  0  0
  7  8  1  0  0  0
  8  9  1  0  0  0
  9 10  1  0  0  0
 10 11  2  0  0  0
 11 12  1  0  0  0
 12 13  1  0  0  0
 13 14  1  0  0  0
 14 15  1  0  0  0
 15 16  1  0  0  0
 16 17  1  0  0  0
 17 18  1  0  0  0
 18 19  1  0  0  0
M  CHG 1  28  -1
M  END
> <minimizedAffinity>
-8.06121

> <CNNscore>
0.7595894337

> <CNNaffinity>
6.9572410583

> <CNN_VS>
5.2846469879

> <CNNaffinity_variance>
0.2153227329

$$$$
/media/chris/experiments/cd1a-new-docking/inputs/ligands/4x6e_ligand.pdb


 37 36  0  0  0  0  0  0  0  0999 V2000
  -42.4378   57.2456   64.0145 O   0  0  0  0  0  0  0  0  0  0  0  0
  -42.1000   57.6761   65.0893 C   0  0  0  0  0  0  0  0  0  0  0  0
  -42.8941   57.5674   66.3548 C   0  0  0  0  0  0  0  0  0  0  0  0
  -43.5041   58.8927   66.7954 C   0  0  0  0  0  0  0  0  0  0  0  0
  -44.7178   59.3211   65.9886 C   0  0  0  0  0  0  0  0  0  0  0  0
  -45.9962   59.3817   66.8060 C   0  0  0  0  0  0  0  0  0  0  0  0
  -46.5505   58.0077   67.1407 C   0  0  0  0  0  0  0  0  0  0  0  0
  -47.3769   57.4336   66.0115 C   0  0  0  0  0  0  0  0  0  0  0  0
  -48.1647   58.4562   65.2178 C   0  0  0  0  0  0  0  0  0  0  0  0
  -49.5945   58.5397   65.5930 C   0  0  0  0  0  0  0  0  0  0  0  0
  -50.5209   59.2369   64.9682 C   0  0  0  0  0  0  0  0  0  0  0  0
  -50.3524   60.0585   63.7316 C   0  0  0  0  0  0  0  0  0  0  0  0
  -51.1773   59.4648   62.5885 C   0  0  0  0  0  0  0  0  0  0  0  0
  -50.8518   58.0222   62.2303 C   0  0  0  0  0  0  0  0  0  0  0  0
  -50.9012   57.7013   60.7415 C   0  0  0  0  0  0  0  0  0  0  0  0
  -49.7211   56.8641   60.2592 C   0  0  0  0  0  0  0  0  0  0  0  0
  -48.9248   57.5157   59.1398 C   0  0  0  0  0  0  0  0  0  0  0  0
  -48.0535   56.5715   58.3252 C   0  0  0  0  0  0  0  0  0  0  0  0
  -47.7823   57.0801   56.9428 C   0  0  0  0  0  0  0  0  0  0  0  0
  -40.9463   58.3111   65.3154 O   0  0  0  0  0  0  0  0  0  0  0  0
  -40.2102   58.7993   64.1723 C   0  0  0  0  0  0  0  0  0  0  0  0
  -40.6332   60.2026   63.7928 C   0  0  0  0  0  0  0  0  0  0  0  0
  -41.0773   60.9358   64.9425 O   0  0  0  0  0  0  0  0  0  0  0  0
  -40.3417   61.0342   65.5670 H   0  0  0  0  0  0  0  0  0  0  0  0
  -39.5338   60.9726   63.0996 C   0  0  0  0  0  0  0  0  0  0  0  0
  -38.2365   60.7026   63.6839 O   0  0  0  0  0  0  0  0  0  0  0  0
  -37.4284   61.3933   64.8864 P   0  0  0  0  0  0  0  0  0  0  0  0
  -38.2887   61.3155   66.1465 O   0  0  0  0  0  0  0  0  0  0  0  0
  -37.2095   62.8179   64.5533 O   0  0  0  0  0  0  0  0  0  0  0  0
  -38.0641   63.2469   64.3902 H   0  0  0  0  0  0  0  0  0  0  0  0
  -36.0011   60.6271   65.1708 O   0  0  0  0  0  0  0  0  0  0  0  0
  -35.7412   59.2098   64.9802 C   0  0  0  0  0  0  0  0  0  0  0  0
  -34.2569   58.9611   64.8754 C   0  0  0  0  0  0  0  0  0  0  0  0
  -33.6936   58.8071   63.4748 N   0  0  0  0  0  0  0  0  0  0  0  0
  -33.1257   60.1033   62.9930 C   0  0  0  0  0  0  0  0  0  0  0  0
  -34.7977   58.3905   62.5594 C   0  0  0  0  0  0  0  0  0  0  0  0
  -32.6109   57.7659   63.4544 C   0  0  0  0  0  0  0  0  0  0  0  0
 34 33  1  0  0  0
 34 35  1  0  0  0
 34 36  1  0  0  0
 34 37  1  0  0  0
 22 23  1  0  0  0
 22 25  1  0  0  0
 22 21  1  0  0  0
 23 24  1  0  0  0
 27 26  1  0  0  0
 27 28  2  0  0  0
 27 31  1  0  0  0
 27 29  1  0  0  0
 25 26  1  0  0  0
 32 33  1  0  0  0
 32 31  1  0  0  0
 29 30  1  0  0  0
 20 21  1  0  0  0
 20  2  1  0  0  0
  1  2  2  0  0  0
  2  3  1  0  0  0
  3  4  1  0  0  0
  4  5  1  0  0  0
  5  6  1  0  0  0
  6  7  1  0  0  0
  7  8  1  0  0  0
  8  9  1  0  0  0
  9 10  1  0  0  0
 10 11  2  0  0  0
 11 12  1  0  0  0
 12 13  1  0  0  0
 13 14  1  0  0  0
 14 15  1  0  0  0
 15 16  1  0  0  0
 16 17  1  0  0  0
 17 18  1  0  0  0
 18 19  1  0  0  0
M  CHG 1  28  -1
M  END
> <minimizedAffinity>
-7.72222

> <CNNscore>
0.7471296191

> <CNNaffinity>
6.6787056923

> <CNN_VS>
4.9898586273

> <CNNaffinity_variance>
0.2247138917

$$$$
/media/chris/experiments/cd1a-new-docking/inputs/ligands/4x6e_ligand.pdb


 37 36  0  0  0  0  0  0  0  0999 V2000
  -40.6965   56.8383   64.1455 O   0  0  0  0  0  0  0  0  0  0  0  0
  -41.7781   57.3512   64.2933 C   0  0  0  0  0  0  0  0  0  0  0  0
  -42.9862   56.6762   64.8663 C   0  0  0  0  0  0  0  0  0  0  0  0
  -43.3884   57.2240   66.2304 C   0  0  0  0  0  0  0  0  0  0  0  0
  -44.7176   57.9592   66.2417 C   0  0  0  0  0  0  0  0  0  0  0  0
  -44.5796   59.4603   66.0582 C   0  0  0  0  0  0  0  0  0  0  0  0
  -45.7828   60.0862   65.3742 C   0  0  0  0  0  0  0  0  0  0  0  0
  -46.9159   59.1006   65.1949 C   0  0  0  0  0  0  0  0  0  0  0  0
  -48.2594   59.5773   65.7086 C   0  0  0  0  0  0  0  0  0  0  0  0
  -49.3489   58.5863   65.5581 C   0  0  0  0  0  0  0  0  0  0  0  0
  -50.4531   58.7476   64.8584 C   0  0  0  0  0  0  0  0  0  0  0  0
  -50.8348   59.9343   64.0346 C   0  0  0  0  0  0  0  0  0  0  0  0
  -50.9338   59.5415   62.5597 C   0  0  0  0  0  0  0  0  0  0  0  0
  -50.5649   58.0997   62.2427 C   0  0  0  0  0  0  0  0  0  0  0  0
  -50.8531   57.6607   60.8121 C   0  0  0  0  0  0  0  0  0  0  0  0
  -49.7391   56.8201   60.1967 C   0  0  0  0  0  0  0  0  0  0  0  0
  -49.1762   57.3984   58.9081 C   0  0  0  0  0  0  0  0  0  0  0  0
  -48.0339   56.6104   58.2849 C   0  0  0  0  0  0  0  0  0  0  0  0
  -47.5662   57.1949   56.9876 C   0  0  0  0  0  0  0  0  0  0  0  0
  -42.0584   58.6183   63.9748 O   0  0  0  0  0  0  0  0  0  0  0  0
  -42.8156   58.8585   62.7683 C   0  0  0  0  0  0  0  0  0  0  0  0
  -42.7639   60.3145   62.3562 C   0  0  0  0  0  0  0  0  0  0  0  0
  -42.4706   61.1576   63.4786 O   0  0  0  0  0  0  0  0  0  0  0  0
  -41.5898   60.9422   63.8232 H   0  0  0  0  0  0  0  0  0  0  0  0
  -41.7586   60.5715   61.2583 C   0  0  0  0  0  0  0  0  0  0  0  0
  -40.6900   59.5940   61.2672 O   0  0  0  0  0  0  0  0  0  0  0  0
  -39.1719   59.6579   61.7845 P   0  0  0  0  0  0  0  0  0  0  0  0
  -38.2651   59.8858   60.5762 O   0  0  0  0  0  0  0  0  0  0  0  0
  -38.8243   58.3560   62.3949 O   0  0  0  0  0  0  0  0  0  0  0  0
  -38.9625   57.6477   61.7466 H   0  0  0  0  0  0  0  0  0  0  0  0
  -38.9512   60.8888   62.8527 O   0  0  0  0  0  0  0  0  0  0  0  0
  -37.7541   61.1293   63.6413 C   0  0  0  0  0  0  0  0  0  0  0  0
  -37.2824   62.5499   63.4533 C   0  0  0  0  0  0  0  0  0  0  0  0
  -36.0657   62.9711   64.2562 N   0  0  0  0  0  0  0  0  0  0  0  0
  -35.3232   64.0599   63.5503 C   0  0  0  0  0  0  0  0  0  0  0  0
  -35.1643   61.7905   64.4116 C   0  0  0  0  0  0  0  0  0  0  0  0
  -36.4762   63.4656   65.6140 C   0  0  0  0  0  0  0  0  0  0  0  0
 34 33  1  0  0  0
 34 35  1  0  0  0
 34 36  1  0  0  0
 34 37  1  0  0  0
 22 23  1  0  0  0
 22 25  1  0  0  0
 22 21  1  0  0  0
 23 24  1  0  0  0
 27 26  1  0  0  0
 27 28  2  0  0  0
 27 31  1  0  0  0
 27 29  1  0  0  0
 25 26  1  0  0  0
 32 33  1  0  0  0
 32 31  1  0  0  0
 29 30  1  0  0  0
 20 21  1  0  0  0
 20  2  1  0  0  0
  1  2  2  0  0  0
  2  3  1  0  0  0
  3  4  1  0  0  0
  4  5  1  0  0  0
  5  6  1  0  0  0
  6  7  1  0  0  0
  7  8  1  0  0  0
  8  9  1  0  0  0
  9 10  1  0  0  0
 10 11  2  0  0  0
 11 12  1  0  0  0
 12 13  1  0  0  0
 13 14  1  0  0  0
 14 15  1  0  0  0
 15 16  1  0  0  0
 16 17  1  0  0  0
 17 18  1  0  0  0
 18 19  1  0  0  0
M  CHG 1  28  -1
M  END
> <minimizedAffinity>
-7.75439

> <CNNscore>
0.7022210360

> <CNNaffinity>
6.7826676369

> <CNN_VS>
4.7629318237

> <CNNaffinity_variance>
0.2406332046

$$$$
/media/chris/experiments/cd1a-new-docking/inputs/ligands/4x6e_ligand.pdb


 37 36  0  0  0  0  0  0  0  0999 V2000
  -40.6366   58.4960   65.6793 O   0  0  0  0  0  0  0  0  0  0  0  0
  -40.8041   59.6388   66.0267 C   0  0  0  0  0  0  0  0  0  0  0  0
  -42.0266   60.1653   66.7137 C   0  0  0  0  0  0  0  0  0  0  0  0
  -43.2885   59.3798   66.3771 C   0  0  0  0  0  0  0  0  0  0  0  0
  -43.9712   59.8146   65.0917 C   0  0  0  0  0  0  0  0  0  0  0  0
  -44.9054   58.7637   64.5182 C   0  0  0  0  0  0  0  0  0  0  0  0
  -46.3584   59.2065   64.5061 C   0  0  0  0  0  0  0  0  0  0  0  0
  -46.9614   59.2280   65.8931 C   0  0  0  0  0  0  0  0  0  0  0  0
  -48.3985   59.7046   65.9532 C   0  0  0  0  0  0  0  0  0  0  0  0
  -49.3987   58.6322   65.7491 C   0  0  0  0  0  0  0  0  0  0  0  0
  -50.4284   58.6777   64.9291 C   0  0  0  0  0  0  0  0  0  0  0  0
  -50.7944   59.7892   64.0000 C   0  0  0  0  0  0  0  0  0  0  0  0
  -51.0109   59.2447   62.5871 C   0  0  0  0  0  0  0  0  0  0  0  0
  -49.9126   58.3300   62.0654 C   0  0  0  0  0  0  0  0  0  0  0  0
  -50.3194   57.4332   60.9025 C   0  0  0  0  0  0  0  0  0  0  0  0
  -49.2724   57.3575   59.7961 C   0  0  0  0  0  0  0  0  0  0  0  0
  -48.6576   55.9771   59.6281 C   0  0  0  0  0  0  0  0  0  0  0  0
  -47.3425   55.9383   58.8643 C   0  0  0  0  0  0  0  0  0  0  0  0
  -47.5311   55.7068   57.3966 C   0  0  0  0  0  0  0  0  0  0  0  0
  -39.9064   60.6142   65.8590 O   0  0  0  0  0  0  0  0  0  0  0  0
  -38.5108   60.2830   66.0310 C   0  0  0  0  0  0  0  0  0  0  0  0
  -37.6163   61.1866   65.2092 C   0  0  0  0  0  0  0  0  0  0  0  0
  -37.3556   62.4177   65.8971 O   0  0  0  0  0  0  0  0  0  0  0  0
  -36.8733   62.2332   66.7182 H   0  0  0  0  0  0  0  0  0  0  0  0
  -36.3067   60.5288   64.8423 C   0  0  0  0  0  0  0  0  0  0  0  0
  -36.3581   59.9234   63.5277 O   0  0  0  0  0  0  0  0  0  0  0  0
  -36.1621   58.4114   63.0263 P   0  0  0  0  0  0  0  0  0  0  0  0
  -36.4934   57.4764   64.1882 O   0  0  0  0  0  0  0  0  0  0  0  0
  -34.7437   58.2156   62.6544 O   0  0  0  0  0  0  0  0  0  0  0  0
  -34.1782   58.4277   63.4135 H   0  0  0  0  0  0  0  0  0  0  0  0
  -37.1573   58.0619   61.7643 O   0  0  0  0  0  0  0  0  0  0  0  0
  -38.4632   57.4304   61.8575 C   0  0  0  0  0  0  0  0  0  0  0  0
  -39.4948   58.4309   62.3164 C   0  0  0  0  0  0  0  0  0  0  0  0
  -40.6704   58.6661   61.3863 N   0  0  0  0  0  0  0  0  0  0  0  0
  -40.7300   57.6023   60.3377 C   0  0  0  0  0  0  0  0  0  0  0  0
  -40.4961   59.9927   60.7228 C   0  0  0  0  0  0  0  0  0  0  0  0
  -41.9603   58.6607   62.1563 C   0  0  0  0  0  0  0  0  0  0  0  0
 34 33  1  0  0  0
 34 35  1  0  0  0
 34 36  1  0  0  0
 34 37  1  0  0  0
 22 23  1  0  0  0
 22 25  1  0  0  0
 22 21  1  0  0  0
 23 24  1  0  0  0
 27 26  1  0  0  0
 27 28  2  0  0  0
 27 31  1  0  0  0
 27 29  1  0  0  0
 25 26  1  0  0  0
 32 33  1  0  0  0
 32 31  1  0  0  0
 29 30  1  0  0  0
 20 21  1  0  0  0
 20  2  1  0  0  0
  1  2  2  0  0  0
  2  3  1  0  0  0
  3  4  1  0  0  0
  4  5  1  0  0  0
  5  6  1  0  0  0
  6  7  1  0  0  0
  7  8  1  0  0  0
  8  9  1  0  0  0
  9 10  1  0  0  0
 10 11  2  0  0  0
 11 12  1  0  0  0
 12 13  1  0  0  0
 13 14  1  0  0  0
 14 15  1  0  0  0
 15 16  1  0  0  0
 16 17  1  0  0  0
 17 18  1  0  0  0
 18 19  1  0  0  0
M  CHG 1  28  -1
M  END
> <minimizedAffinity>
-8.04241

> <CNNscore>
0.6972916722

> <CNNaffinity>
7.0035414696

> <CNN_VS>
4.8835110664

> <CNNaffinity_variance>
0.2089155614

$$$$
/media/chris/experiments/cd1a-new-docking/inputs/ligands/4x6e_ligand.pdb


 37 36  0  0  0  0  0  0  0  0999 V2000
  -41.2413   60.8830   63.9954 O   0  0  0  0  0  0  0  0  0  0  0  0
  -41.9088   59.8849   64.1096 C   0  0  0  0  0  0  0  0  0  0  0  0
  -43.2381   59.8052   64.7953 C   0  0  0  0  0  0  0  0  0  0  0  0
  -44.3708   60.4176   63.9801 C   0  0  0  0  0  0  0  0  0  0  0  0
  -45.7530   60.2077   64.5743 C   0  0  0  0  0  0  0  0  0  0  0  0
  -45.7913   59.1389   65.6524 C   0  0  0  0  0  0  0  0  0  0  0  0
  -47.1282   59.0699   66.3703 C   0  0  0  0  0  0  0  0  0  0  0  0
  -48.0514   60.1991   65.9700 C   0  0  0  0  0  0  0  0  0  0  0  0
  -49.5228   59.8378   65.9458 C   0  0  0  0  0  0  0  0  0  0  0  0
  -49.8244   58.5848   65.2172 C   0  0  0  0  0  0  0  0  0  0  0  0
  -50.4514   58.4904   64.0628 C   0  0  0  0  0  0  0  0  0  0  0  0
  -50.9581   59.6124   63.2160 C   0  0  0  0  0  0  0  0  0  0  0  0
  -50.4764   59.4430   61.7742 C   0  0  0  0  0  0  0  0  0  0  0  0
  -49.5420   58.2666   61.5328 C   0  0  0  0  0  0  0  0  0  0  0  0
  -49.9331   57.3611   60.3713 C   0  0  0  0  0  0  0  0  0  0  0  0
  -49.0714   56.1076   60.2591 C   0  0  0  0  0  0  0  0  0  0  0  0
  -48.1502   56.1040   59.0495 C   0  0  0  0  0  0  0  0  0  0  0  0
  -48.3752   57.2339   58.0560 C   0  0  0  0  0  0  0  0  0  0  0  0
  -47.4095   57.2005   56.9115 C   0  0  0  0  0  0  0  0  0  0  0  0
  -41.5619   58.6895   63.6237 O   0  0  0  0  0  0  0  0  0  0  0  0
  -42.2170   58.2355   62.4188 C   0  0  0  0  0  0  0  0  0  0  0  0
  -41.4317   57.1359   61.7359 C   0  0  0  0  0  0  0  0  0  0  0  0
  -41.2559   57.4183   60.3409 O   0  0  0  0  0  0  0  0  0  0  0  0
  -40.7325   58.2286   60.2386 H   0  0  0  0  0  0  0  0  0  0  0  0
  -40.0830   56.9029   62.3753 C   0  0  0  0  0  0  0  0  0  0  0  0
  -38.9970   57.1915   61.4617 O   0  0  0  0  0  0  0  0  0  0  0  0
  -38.0422   58.4698   61.2881 P   0  0  0  0  0  0  0  0  0  0  0  0
  -38.8100   59.7059   61.7536 O   0  0  0  0  0  0  0  0  0  0  0  0
  -37.7196   58.6289   59.8532 O   0  0  0  0  0  0  0  0  0  0  0  0
  -38.5414   58.7117   59.3443 H   0  0  0  0  0  0  0  0  0  0  0  0
  -36.6736   58.3257   62.1887 O   0  0  0  0  0  0  0  0  0  0  0  0
  -36.5584   58.5897   63.6135 C   0  0  0  0  0  0  0  0  0  0  0  0
  -36.0114   59.9765   63.8444 C   0  0  0  0  0  0  0  0  0  0  0  0
  -36.8310   60.8871   64.7399 N   0  0  0  0  0  0  0  0  0  0  0  0
  -38.0277   60.1635   65.2682 C   0  0  0  0  0  0  0  0  0  0  0  0
  -37.2883   62.0604   63.9370 C   0  0  0  0  0  0  0  0  0  0  0  0
  -36.0049   61.3687   65.8985 C   0  0  0  0  0  0  0  0  0  0  0  0
 34 33  1  0  0  0
 34 35  1  0  0  0
 34 36  1  0  0  0
 34 37  1  0  0  0
 22 23  1  0  0  0
 22 25  1  0  0  0
 22 21  1  0  0  0
 23 24  1  0  0  0
 27 26  1  0  0  0
 27 28  2  0  0  0
 27 31  1  0  0  0
 27 29  1  0  0  0
 25 26  1  0  0  0
 32 33  1  0  0  0
 32 31  1  0  0  0
 29 30  1  0  0  0
 20 21  1  0  0  0
 20  2  1  0  0  0
  1  2  2  0  0  0
  2  3  1  0  0  0
  3  4  1  0  0  0
  4  5  1  0  0  0
  5  6  1  0  0  0
  6  7  1  0  0  0
  7  8  1  0  0  0
  8  9  1  0  0  0
  9 10  1  0  0  0
 10 11  2  0  0  0
 11 12  1  0  0  0
 12 13  1  0  0  0
 13 14  1  0  0  0
 14 15  1  0  0  0
 15 16  1  0  0  0
 16 17  1  0  0  0
 17 18  1  0  0  0
 18 19  1  0  0  0
M  CHG 1  28  -1
M  END
> <minimizedAffinity>
-7.69558

> <CNNscore>
0.6608749628

> <CNNaffinity>
6.8694586754

> <CNN_VS>
4.5398530960

> <CNNaffinity_variance>
0.3297089636

$$$$
/media/chris/experiments/cd1a-new-docking/inputs/ligands/4x6e_ligand.pdb


 37 36  0  0  0  0  0  0  0  0999 V2000
  -40.1856   60.8703   66.2739 O   0  0  0  0  0  0  0  0  0  0  0  0
  -39.7144   59.8023   65.9702 C   0  0  0  0  0  0  0  0  0  0  0  0
  -40.5007   58.5764   65.6202 C   0  0  0  0  0  0  0  0  0  0  0  0
  -41.9783   58.6901   65.9758 C   0  0  0  0  0  0  0  0  0  0  0  0
  -42.6988   57.3574   66.0869 C   0  0  0  0  0  0  0  0  0  0  0  0
  -44.0807   57.3632   65.4573 C   0  0  0  0  0  0  0  0  0  0  0  0
  -45.1686   57.8040   66.4214 C   0  0  0  0  0  0  0  0  0  0  0  0
  -46.0242   58.9128   65.8502 C   0  0  0  0  0  0  0  0  0  0  0  0
  -47.4136   59.0138   66.4465 C   0  0  0  0  0  0  0  0  0  0  0  0
  -48.3362   57.9406   66.0117 C   0  0  0  0  0  0  0  0  0  0  0  0
  -49.6129   58.0854   65.7222 C   0  0  0  0  0  0  0  0  0  0  0  0
  -50.4015   59.3545   65.7264 C   0  0  0  0  0  0  0  0  0  0  0  0
  -50.6173   59.8451   64.2938 C   0  0  0  0  0  0  0  0  0  0  0  0
  -50.7332   58.7526   63.2410 C   0  0  0  0  0  0  0  0  0  0  0  0
  -50.5053   59.2137   61.8065 C   0  0  0  0  0  0  0  0  0  0  0  0
  -50.4883   58.0722   60.7951 C   0  0  0  0  0  0  0  0  0  0  0  0
  -49.5658   58.3165   59.6114 C   0  0  0  0  0  0  0  0  0  0  0  0
  -49.1314   57.0695   58.8560 C   0  0  0  0  0  0  0  0  0  0  0  0
  -48.2424   56.1794   59.6690 C   0  0  0  0  0  0  0  0  0  0  0  0
  -38.4038   59.5555   65.8880 O   0  0  0  0  0  0  0  0  0  0  0  0
  -37.9749   58.4648   65.0433 C   0  0  0  0  0  0  0  0  0  0  0  0
  -36.5694   58.6798   64.5231 C   0  0  0  0  0  0  0  0  0  0  0  0
  -36.5034   58.4546   63.1084 O   0  0  0  0  0  0  0  0  0  0  0  0
  -37.0632   59.1018   62.6516 H   0  0  0  0  0  0  0  0  0  0  0  0
  -36.0388   60.0588   64.8378 C   0  0  0  0  0  0  0  0  0  0  0  0
  -36.1790   60.9594   63.7123 O   0  0  0  0  0  0  0  0  0  0  0  0
  -37.4431   61.7379   63.1026 P   0  0  0  0  0  0  0  0  0  0  0  0
  -36.9694   63.1032   62.6069 O   0  0  0  0  0  0  0  0  0  0  0  0
  -38.4355   61.9467   64.1797 O   0  0  0  0  0  0  0  0  0  0  0  0
  -38.0219   62.4323   64.9106 H   0  0  0  0  0  0  0  0  0  0  0  0
  -38.1049   60.9162   61.8409 O   0  0  0  0  0  0  0  0  0  0  0  0
  -39.3849   60.2274   61.8491 C   0  0  0  0  0  0  0  0  0  0  0  0
  -39.3386   59.0299   60.9327 C   0  0  0  0  0  0  0  0  0  0  0  0
  -40.2806   57.8873   61.2638 N   0  0  0  0  0  0  0  0  0  0  0  0
  -41.4678   58.3896   62.0209 C   0  0  0  0  0  0  0  0  0  0  0  0
  -39.5499   56.8959   62.1086 C   0  0  0  0  0  0  0  0  0  0  0  0
  -40.7557   57.2155   60.0070 C   0  0  0  0  0  0  0  0  0  0  0  0
 34 33  1  0  0  0
 34 35  1  0  0  0
 34 36  1  0  0  0
 34 37  1  0  0  0
 22 23  1  0  0  0
 22 25  1  0  0  0
 22 21  1  0  0  0
 23 24  1  0  0  0
 27 26  1  0  0  0
 27 28  2  0  0  0
 27 31  1  0  0  0
 27 29  1  0  0  0
 25 26  1  0  0  0
 32 33  1  0  0  0
 32 31  1  0  0  0
 29 30  1  0  0  0
 20 21  1  0  0  0
 20  2  1  0  0  0
  1  2  2  0  0  0
  2  3  1  0  0  0
  3  4  1  0  0  0
  4  5  1  0  0  0
  5  6  1  0  0  0
  6  7  1  0  0  0
  7  8  1  0  0  0
  8  9  1  0  0  0
  9 10  1  0  0  0
 10 11  2  0  0  0
 11 12  1  0  0  0
 12 13  1  0  0  0
 13 14  1  0  0  0
 14 15  1  0  0  0
 15 16  1  0  0  0
 16 17  1  0  0  0
 17 18  1  0  0  0
 18 19  1  0  0  0
M  CHG 1  28  -1
M  END
> <minimizedAffinity>
-7.62179

> <CNNscore>
0.6200525165

> <CNNaffinity>
6.8319807053

> <CNN_VS>
4.2361869812

> <CNNaffinity_variance>
0.1288330257

$$$$
/media/chris/experiments/cd1a-new-docking/inputs/ligands/4x6e_ligand.pdb


 37 36  0  0  0  0  0  0  0  0999 V2000
  -42.3226   60.8994   64.2824 O   0  0  0  0  0  0  0  0  0  0  0  0
  -42.7290   60.0196   63.5644 C   0  0  0  0  0  0  0  0  0  0  0  0
  -43.9943   59.2457   63.7733 C   0  0  0  0  0  0  0  0  0  0  0  0
  -45.1098   60.0772   64.3952 C   0  0  0  0  0  0  0  0  0  0  0  0
  -45.4703   59.6768   65.8155 C   0  0  0  0  0  0  0  0  0  0  0  0
  -45.4458   58.1759   66.0450 C   0  0  0  0  0  0  0  0  0  0  0  0
  -46.8122   57.5308   65.8897 C   0  0  0  0  0  0  0  0  0  0  0  0
  -47.9378   58.4972   66.1843 C   0  0  0  0  0  0  0  0  0  0  0  0
  -49.2546   58.1615   65.5138 C   0  0  0  0  0  0  0  0  0  0  0  0
  -50.2504   59.2562   65.5580 C   0  0  0  0  0  0  0  0  0  0  0  0
  -50.5985   60.0292   64.5500 C   0  0  0  0  0  0  0  0  0  0  0  0
  -50.1059   59.9530   63.1414 C   0  0  0  0  0  0  0  0  0  0  0  0
  -51.1371   59.2456   62.2606 C   0  0  0  0  0  0  0  0  0  0  0  0
  -50.7715   57.8307   61.8366 C   0  0  0  0  0  0  0  0  0  0  0  0
  -49.9264   57.7353   60.5721 C   0  0  0  0  0  0  0  0  0  0  0  0
  -49.2668   56.3734   60.3815 C   0  0  0  0  0  0  0  0  0  0  0  0
  -48.2247   56.3472   59.2745 C   0  0  0  0  0  0  0  0  0  0  0  0
  -48.5014   57.2704   58.0975 C   0  0  0  0  0  0  0  0  0  0  0  0
  -47.5000   57.1190   56.9940 C   0  0  0  0  0  0  0  0  0  0  0  0
  -42.1082   59.6085   62.4548 O   0  0  0  0  0  0  0  0  0  0  0  0
  -41.6354   58.2441   62.4129 C   0  0  0  0  0  0  0  0  0  0  0  0
  -40.2789   58.1021   63.0701 C   0  0  0  0  0  0  0  0  0  0  0  0
  -40.4020   57.5721   64.3970 O   0  0  0  0  0  0  0  0  0  0  0  0
  -40.7774   56.6787   64.3546 H   0  0  0  0  0  0  0  0  0  0  0  0
  -39.3338   57.2375   62.2693 C   0  0  0  0  0  0  0  0  0  0  0  0
  -38.0242   57.8433   62.1451 O   0  0  0  0  0  0  0  0  0  0  0  0
  -36.9429   58.3115   63.2349 P   0  0  0  0  0  0  0  0  0  0  0  0
  -35.6249   57.5986   62.9365 O   0  0  0  0  0  0  0  0  0  0  0  0
  -37.4101   57.8950   64.5753 O   0  0  0  0  0  0  0  0  0  0  0  0
  -37.5504   56.9351   64.5850 H   0  0  0  0  0  0  0  0  0  0  0  0
  -36.6923   59.9358   63.1750 O   0  0  0  0  0  0  0  0  0  0  0  0
  -36.5376   60.8177   64.3201 C   0  0  0  0  0  0  0  0  0  0  0  0
  -35.2267   61.5594   64.2339 C   0  0  0  0  0  0  0  0  0  0  0  0
  -35.0976   62.8073   65.0875 N   0  0  0  0  0  0  0  0  0  0  0  0
  -34.3834   63.8844   64.3361 C   0  0  0  0  0  0  0  0  0  0  0  0
  -34.3137   62.4685   66.3128 C   0  0  0  0  0  0  0  0  0  0  0  0
  -36.4538   63.3135   65.4888 C   0  0  0  0  0  0  0  0  0  0  0  0
 34 33  1  0  0  0
 34 35  1  0  0  0
 34 36  1  0  0  0
 34 37  1  0  0  0
 22 23  1  0  0  0
 22 25  1  0  0  0
 22 21  1  0  0  0
 23 24  1  0  0  0
 27 26  1  0  0  0
 27 28  2  0  0  0
 27 31  1  0  0  0
 27 29  1  0  0  0
 25 26  1  0  0  0
 32 33  1  0  0  0
 32 31  1  0  0  0
 29 30  1  0  0  0
 20 21  1  0  0  0
 20  2  1  0  0  0
  1  2  2  0  0  0
  2  3  1  0  0  0
  3  4  1  0  0  0
  4  5  1  0  0  0
  5  6  1  0  0  0
  6  7  1  0  0  0
  7  8  1  0  0  0
  8  9  1  0  0  0
  9 10  1  0  0  0
 10 11  2  0  0  0
 11 12  1  0  0  0
 12 13  1  0  0  0
 13 14  1  0  0  0
 14 15  1  0  0  0
 15 16  1  0  0  0
 16 17  1  0  0  0
 17 18  1  0  0  0
 18 19  1  0  0  0
M  CHG 1  28  -1
M  END
> <minimizedAffinity>
-7.66406

> <CNNscore>
0.5673145652

> <CNNaffinity>
6.5213584900

> <CNN_VS>
3.6996617317

> <CNNaffinity_variance>
0.3910246193

$$$$
/media/chris/experiments/cd1a-new-docking/inputs/ligands/4x6e_ligand.pdb


 37 36  0  0  0  0  0  0  0  0999 V2000
  -46.3529   60.5649   64.3174 O   0  0  0  0  0  0  0  0  0  0  0  0
  -45.3994   60.1974   64.9581 C   0  0  0  0  0  0  0  0  0  0  0  0
  -45.4337   59.7629   66.3912 C   0  0  0  0  0  0  0  0  0  0  0  0
  -44.5713   58.5370   66.6667 C   0  0  0  0  0  0  0  0  0  0  0  0
  -45.3221   57.2179   66.6052 C   0  0  0  0  0  0  0  0  0  0  0  0
  -46.7716   57.3265   67.0450 C   0  0  0  0  0  0  0  0  0  0  0  0
  -47.7524   56.9340   65.9536 C   0  0  0  0  0  0  0  0  0  0  0  0
  -48.7736   58.0170   65.6856 C   0  0  0  0  0  0  0  0  0  0  0  0
  -49.0306   58.2984   64.2190 C   0  0  0  0  0  0  0  0  0  0  0  0
  -50.4475   58.5851   63.8991 C   0  0  0  0  0  0  0  0  0  0  0  0
  -50.8827   59.3256   62.9006 C   0  0  0  0  0  0  0  0  0  0  0  0
  -50.0601   60.0025   61.8528 C   0  0  0  0  0  0  0  0  0  0  0  0
  -50.0375   59.1608   60.5760 C   0  0  0  0  0  0  0  0  0  0  0  0
  -50.6422   57.7701   60.7009 C   0  0  0  0  0  0  0  0  0  0  0  0
  -49.6818   56.6220   60.4152 C   0  0  0  0  0  0  0  0  0  0  0  0
  -48.5583   56.9926   59.4527 C   0  0  0  0  0  0  0  0  0  0  0  0
  -47.9312   55.7967   58.7538 C   0  0  0  0  0  0  0  0  0  0  0  0
  -46.9872   56.1326   57.6092 C   0  0  0  0  0  0  0  0  0  0  0  0
  -47.5463   57.1665   56.6808 C   0  0  0  0  0  0  0  0  0  0  0  0
  -44.1571   60.1106   64.4737 O   0  0  0  0  0  0  0  0  0  0  0  0
  -43.9657   60.3502   63.0620 C   0  0  0  0  0  0  0  0  0  0  0  0
  -42.7041   61.1438   62.7956 C   0  0  0  0  0  0  0  0  0  0  0  0
  -41.7398   60.9440   63.8381 O   0  0  0  0  0  0  0  0  0  0  0  0
  -41.4739   60.0114   63.8582 H   0  0  0  0  0  0  0  0  0  0  0  0
  -42.0788   60.8091   61.4618 C   0  0  0  0  0  0  0  0  0  0  0  0
  -41.0015   59.8507   61.5975 O   0  0  0  0  0  0  0  0  0  0  0  0
  -40.9861   58.2483   61.6872 P   0  0  0  0  0  0  0  0  0  0  0  0
  -41.9979   57.7041   60.6801 O   0  0  0  0  0  0  0  0  0  0  0  0
  -41.4113   57.8457   63.0457 O   0  0  0  0  0  0  0  0  0  0  0  0
  -42.2879   58.2162   63.2332 H   0  0  0  0  0  0  0  0  0  0  0  0
  -39.5010   57.6396   61.3282 O   0  0  0  0  0  0  0  0  0  0  0  0
  -38.5963   56.9913   62.2631 C   0  0  0  0  0  0  0  0  0  0  0  0
  -37.3756   57.8489   62.4874 C   0  0  0  0  0  0  0  0  0  0  0  0
  -37.0705   58.2298   63.9242 N   0  0  0  0  0  0  0  0  0  0  0  0
  -36.4936   59.6074   63.9899 C   0  0  0  0  0  0  0  0  0  0  0  0
  -36.0764   57.2604   64.4743 C   0  0  0  0  0  0  0  0  0  0  0  0
  -38.3201   58.1872   64.7569 C   0  0  0  0  0  0  0  0  0  0  0  0
 34 33  1  0  0  0
 34 35  1  0  0  0
 34 36  1  0  0  0
 34 37  1  0  0  0
 22 23  1  0  0  0
 22 25  1  0  0  0
 22 21  1  0  0  0
 23 24  1  0  0  0
 27 26  1  0  0  0
 27 28  2  0  0  0
 27 31  1  0  0  0
 27 29  1  0  0  0
 25 26  1  0  0  0
 32 33  1  0  0  0
 32 31  1  0  0  0
 29 30  1  0  0  0
 20 21  1  0  0  0
 20  2  1  0  0  0
  1  2  2  0  0  0
  2  3  1  0  0  0
  3  4  1  0  0  0
  4  5  1  0  0  0
  5  6  1  0  0  0
  6  7  1  0  0  0
  7  8  1  0  0  0
  8  9  1  0  0  0
  9 10  1  0  0  0
 10 11  2  0  0  0
 11 12  1  0  0  0
 12 13  1  0  0  0
 13 14  1  0  0  0
 14 15  1  0  0  0
 15 16  1  0  0  0
 16 17  1  0  0  0
 17 18  1  0  0  0
 18 19  1  0  0  0
M  CHG 1  28  -1
M  END
> <minimizedAffinity>
-7.67976

> <CNNscore>
0.5552832484

> <CNNaffinity>
6.7318620682

> <CNN_VS>
3.7380902767

> <CNNaffinity_variance>
0.3499018848

$$$$
