/media/chris/experiments/cd1a-new-docking/inputs/ligands/4x6e_ligand.pdb


 37 36  0  0  0  0  0  0  0  0999 V2000
  -40.8708   60.8509   66.1407 O   0  0  0  0  0  0  0  0  0  0  0  0
  -40.8628   59.6534   65.9980 C   0  0  0  0  0  0  0  0  0  0  0  0
  -41.9723   58.7264   66.3901 C   0  0  0  0  0  0  0  0  0  0  0  0
  -43.2285   59.4562   66.8504 C   0  0  0  0  0  0  0  0  0  0  0  0
  -44.3871   59.3854   65.8705 C   0  0  0  0  0  0  0  0  0  0  0  0
  -45.7334   59.1747   66.5405 C   0  0  0  0  0  0  0  0  0  0  0  0
  -46.2761   57.7688   66.3498 C   0  0  0  0  0  0  0  0  0  0  0  0
  -47.7868   57.7431   66.2828 C   0  0  0  0  0  0  0  0  0  0  0  0
  -48.3669   58.0433   64.9156 C   0  0  0  0  0  0  0  0  0  0  0  0
  -49.7361   58.6058   64.9515 C   0  0  0  0  0  0  0  0  0  0  0  0
  -50.4496   58.9776   63.9087 C   0  0  0  0  0  0  0  0  0  0  0  0
  -50.0627   58.8802   62.4687 C   0  0  0  0  0  0  0  0  0  0  0  0
  -50.9873   57.9038   61.7399 C   0  0  0  0  0  0  0  0  0  0  0  0
  -50.6717   57.6824   60.2679 C   0  0  0  0  0  0  0  0  0  0  0  0
  -49.1902   57.5378   59.9413 C   0  0  0  0  0  0  0  0  0  0  0  0
  -48.7245   56.0882   59.8532 C   0  0  0  0  0  0  0  0  0  0  0  0
  -47.4404   55.9045   59.0600 C   0  0  0  0  0  0  0  0  0  0  0  0
  -47.6155   55.7988   57.5524 C   0  0  0  0  0  0  0  0  0  0  0  0
  -47.4067   57.1060   56.8515 C   0  0  0  0  0  0  0  0  0  0  0  0
  -39.8544   58.9688   65.4501 O   0  0  0  0  0  0  0  0  0  0  0  0
  -38.5262   59.1916   65.9725 C   0  0  0  0  0  0  0  0  0  0  0  0
  -37.4729   58.4933   65.1387 C   0  0  0  0  0  0  0  0  0  0  0  0
  -38.0697   57.7745   64.0508 O   0  0  0  0  0  0  0  0  0  0  0  0
  -38.5154   58.3986   63.4568 H   0  0  0  0  0  0  0  0  0  0  0  0
  -36.4327   59.4475   64.6002 C   0  0  0  0  0  0  0  0  0  0  0  0
  -36.9891   60.7588   64.3387 O   0  0  0  0  0  0  0  0  0  0  0  0
  -37.9299   61.3187   63.1652 P   0  0  0  0  0  0  0  0  0  0  0  0
  -37.3117   62.6105   62.6329 O   0  0  0  0  0  0  0  0  0  0  0  0
  -39.2594   61.6324   63.7329 O   0  0  0  0  0  0  0  0  0  0  0  0
  -39.1594   62.2679   64.4588 H   0  0  0  0  0  0  0  0  0  0  0  0
  -38.0548   60.2419   61.9282 O   0  0  0  0  0  0  0  0  0  0  0  0
  -39.2321   60.0225   61.1043 C   0  0  0  0  0  0  0  0  0  0  0  0
  -39.5026   58.5449   60.9644 C   0  0  0  0  0  0  0  0  0  0  0  0
  -40.9512   58.1080   61.0797 N   0  0  0  0  0  0  0  0  0  0  0  0
  -41.8553   59.1217   60.4550 C   0  0  0  0  0  0  0  0  0  0  0  0
  -41.2963   57.9760   62.5267 C   0  0  0  0  0  0  0  0  0  0  0  0
  -41.1588   56.7866   60.3962 C   0  0  0  0  0  0  0  0  0  0  0  0
 34 33  1  0  0  0
 34 35  1  0  0  0
 34 36  1  0  0  0
 34 37  1  0  0  0
 22 23  1  0  0  0
 22 25  1  0  0  0
 22 21  1  0  0  0
 23 24  1  0  0  0
 27 26  1  0  0  0
 27 28  2  0  0  0
 27 31  1  0  0  0
 27 29  1  0  0  0
 25 26  1  0  0  0
 32 33  1  0  0  0
 32 31  1  0  0  0
 29 30  1  0  0  0
 20 21  1  0  0  0
 20  2  1  0  0  0
  1  2  2  0  0  0
  2  3  1  0  0  0
  3  4  1  0  0  0
  4  5  1  0  0  0
  5  6  1  0  0  0
  6  7  1  0  0  0
  7  8  1  0  0  0
  8  9  1  0  0  0
  9 10  1  0  0  0
 10 11  2  0  0  0
 11 12  1  0  0  0
 12 13  1  0  0  0
 13 14  1  0  0  0
 14 15  1  0  0  0
 15 16  1  0  0  0
 16 17  1  0  0  0
 17 18  1  0  0  0
 18 19  1  0  0  0
M  CHG 1  28  -1
M  END
> <minimizedAffinity>
-7.96105

> <CNNscore>
0.8218977451

> <CNNaffinity>
7.1807913780

> <CNN_VS>
5.9018764496

> <CNNaffinity_variance>
0.0760480538

$$$$
/media/chris/experiments/cd1a-new-docking/inputs/ligands/4x6e_ligand.pdb


 37 36  0  0  0  0  0  0  0  0999 V2000
  -42.3774   56.8981   65.9873 O   0  0  0  0  0  0  0  0  0  0  0  0
  -42.0710   58.0484   65.7938 C   0  0  0  0  0  0  0  0  0  0  0  0
  -43.0063   59.2168   65.8570 C   0  0  0  0  0  0  0  0  0  0  0  0
  -43.9626   59.1557   67.0420 C   0  0  0  0  0  0  0  0  0  0  0  0
  -45.4323   59.2191   66.6632 C   0  0  0  0  0  0  0  0  0  0  0  0
  -45.8679   58.0935   65.7417 C   0  0  0  0  0  0  0  0  0  0  0  0
  -46.8196   57.1160   66.4098 C   0  0  0  0  0  0  0  0  0  0  0  0
  -48.2630   57.3838   66.0461 C   0  0  0  0  0  0  0  0  0  0  0  0
  -48.5498   58.7986   65.5858 C   0  0  0  0  0  0  0  0  0  0  0  0
  -49.9748   59.0550   65.2759 C   0  0  0  0  0  0  0  0  0  0  0  0
  -50.5465   58.9311   64.0959 C   0  0  0  0  0  0  0  0  0  0  0  0
  -49.9068   58.4705   62.8265 C   0  0  0  0  0  0  0  0  0  0  0  0
  -50.9706   58.2547   61.7488 C   0  0  0  0  0  0  0  0  0  0  0  0
  -50.5829   57.2958   60.6327 C   0  0  0  0  0  0  0  0  0  0  0  0
  -49.1498   56.7810   60.6945 C   0  0  0  0  0  0  0  0  0  0  0  0
  -48.6035   56.3359   59.3419 C   0  0  0  0  0  0  0  0  0  0  0  0
  -48.6376   57.4234   58.2799 C   0  0  0  0  0  0  0  0  0  0  0  0
  -47.7245   57.1954   57.0845 C   0  0  0  0  0  0  0  0  0  0  0  0
  -47.1020   55.8330   57.0822 C   0  0  0  0  0  0  0  0  0  0  0  0
  -40.8325   58.4573   65.5029 O   0  0  0  0  0  0  0  0  0  0  0  0
  -40.5558   59.8732   65.5750 C   0  0  0  0  0  0  0  0  0  0  0  0
  -39.0936   60.1709   65.3192 C   0  0  0  0  0  0  0  0  0  0  0  0
  -38.6383   61.2581   66.1360 O   0  0  0  0  0  0  0  0  0  0  0  0
  -38.7045   61.0096   67.0713 H   0  0  0  0  0  0  0  0  0  0  0  0
  -38.2083   58.9677   65.5450 C   0  0  0  0  0  0  0  0  0  0  0  0
  -37.6656   58.4581   64.3028 O   0  0  0  0  0  0  0  0  0  0  0  0
  -36.9077   59.1721   63.0815 P   0  0  0  0  0  0  0  0  0  0  0  0
  -36.4552   58.0902   62.1023 O   0  0  0  0  0  0  0  0  0  0  0  0
  -35.7094   59.8627   63.6063 O   0  0  0  0  0  0  0  0  0  0  0  0
  -35.1435   59.2236   64.0671 H   0  0  0  0  0  0  0  0  0  0  0  0
  -37.8962   60.2225   62.2912 O   0  0  0  0  0  0  0  0  0  0  0  0
  -38.7867   59.8918   61.1910 C   0  0  0  0  0  0  0  0  0  0  0  0
  -40.1120   59.4037   61.7214 C   0  0  0  0  0  0  0  0  0  0  0  0
  -40.5314   58.0042   61.3112 N   0  0  0  0  0  0  0  0  0  0  0  0
  -39.8678   57.6129   60.0299 C   0  0  0  0  0  0  0  0  0  0  0  0
  -42.0119   57.9876   61.1159 C   0  0  0  0  0  0  0  0  0  0  0  0
  -40.1586   57.0100   62.3737 C   0  0  0  0  0  0  0  0  0  0  0  0
 34 33  1  0  0  0
 34 35  1  0  0  0
 34 36  1  0  0  0
 34 37  1  0  0  0
 22 23  1  0  0  0
 22 25  1  0  0  0
 22 21  1  0  0  0
 23 24  1  0  0  0
 27 26  1  0  0  0
 27 28  2  0  0  0
 27 31  1  0  0  0
 27 29  1  0  0  0
 25 26  1  0  0  0
 32 33  1  0  0  0
 32 31  1  0  0  0
 29 30  1  0  0  0
 20 21  1  0  0  0
 20  2  1  0  0  0
  1  2  2  0  0  0
  2  3  1  0  0  0
  3  4  1  0  0  0
  4  5  1  0  0  0
  5  6  1  0  0  0
  6  7  1  0  0  0
  7  8  1  0  0  0
  8  9  1  0  0  0
  9 10  1  0  0  0
 10 11  2  0  0  0
 11 12  1  0  0  0
 12 13  1  0  0  0
 13 14  1  0  0  0
 14 15  1  0  0  0
 15 16  1  0  0  0
 16 17  1  0  0  0
 17 18  1  0  0  0
 18 19  1  0  0  0
M  CHG 1  28  -1
M  END
> <minimizedAffinity>
-8.01709

> <CNNscore>
0.8141911626

> <CNNaffinity>
7.2755098343

> <CNN_VS>
5.9236559868

> <CNNaffinity_variance>
0.2683887184

$$$$
/media/chris/experiments/cd1a-new-docking/inputs/ligands/4x6e_ligand.pdb


 37 36  0  0  0  0  0  0  0  0999 V2000
  -41.0272   58.9735   65.7986 O   0  0  0  0  0  0  0  0  0  0  0  0
  -41.4494   58.2263   64.9513 C   0  0  0  0  0  0  0  0  0  0  0  0
  -42.2972   57.0178   65.2058 C   0  0  0  0  0  0  0  0  0  0  0  0
  -43.2680   57.2003   66.3663 C   0  0  0  0  0  0  0  0  0  0  0  0
  -44.6251   57.7524   65.9650 C   0  0  0  0  0  0  0  0  0  0  0  0
  -44.7746   59.2402   66.2297 C   0  0  0  0  0  0  0  0  0  0  0  0
  -45.7084   59.9256   65.2470 C   0  0  0  0  0  0  0  0  0  0  0  0
  -47.1635   59.7355   65.6129 C   0  0  0  0  0  0  0  0  0  0  0  0
  -47.8803   58.6568   64.8264 C   0  0  0  0  0  0  0  0  0  0  0  0
  -49.1814   58.2518   65.4056 C   0  0  0  0  0  0  0  0  0  0  0  0
  -50.3670   58.6827   65.0268 C   0  0  0  0  0  0  0  0  0  0  0  0
  -50.6691   59.6339   63.9147 C   0  0  0  0  0  0  0  0  0  0  0  0
  -50.9966   58.8617   62.6357 C   0  0  0  0  0  0  0  0  0  0  0  0
  -49.8044   58.5340   61.7486 C   0  0  0  0  0  0  0  0  0  0  0  0
  -49.9987   58.8417   60.2687 C   0  0  0  0  0  0  0  0  0  0  0  0
  -49.9870   57.6009   59.3819 C   0  0  0  0  0  0  0  0  0  0  0  0
  -48.5957   57.0430   59.1275 C   0  0  0  0  0  0  0  0  0  0  0  0
  -48.0704   57.2235   57.7112 C   0  0  0  0  0  0  0  0  0  0  0  0
  -47.6534   55.9314   57.0786 C   0  0  0  0  0  0  0  0  0  0  0  0
  -41.2306   58.3753   63.6415 O   0  0  0  0  0  0  0  0  0  0  0  0
  -42.1802   59.1572   62.8841 C   0  0  0  0  0  0  0  0  0  0  0  0
  -42.2390   58.7170   61.4368 C   0  0  0  0  0  0  0  0  0  0  0  0
  -41.9454   59.8080   60.5537 O   0  0  0  0  0  0  0  0  0  0  0  0
  -41.0375   60.1129   60.7073 H   0  0  0  0  0  0  0  0  0  0  0  0
  -41.3054   57.5664   61.1419 C   0  0  0  0  0  0  0  0  0  0  0  0
  -40.2191   57.9644   60.2707 O   0  0  0  0  0  0  0  0  0  0  0  0
  -38.7556   58.5523   60.5682 P   0  0  0  0  0  0  0  0  0  0  0  0
  -38.9039   60.0155   60.9822 O   0  0  0  0  0  0  0  0  0  0  0  0
  -37.9595   58.4940   59.3228 O   0  0  0  0  0  0  0  0  0  0  0  0
  -38.4176   58.9848   58.6227 H   0  0  0  0  0  0  0  0  0  0  0  0
  -38.0124   57.7303   61.7835 O   0  0  0  0  0  0  0  0  0  0  0  0
  -37.7243   58.2475   63.1111 C   0  0  0  0  0  0  0  0  0  0  0  0
  -36.3882   58.9482   63.1192 C   0  0  0  0  0  0  0  0  0  0  0  0
  -35.2826   58.2884   63.9223 N   0  0  0  0  0  0  0  0  0  0  0  0
  -34.7042   59.2524   64.9078 C   0  0  0  0  0  0  0  0  0  0  0  0
  -34.2070   57.8501   62.9834 C   0  0  0  0  0  0  0  0  0  0  0  0
  -35.8116   57.0947   64.6649 C   0  0  0  0  0  0  0  0  0  0  0  0
 34 33  1  0  0  0
 34 35  1  0  0  0
 34 36  1  0  0  0
 34 37  1  0  0  0
 22 23  1  0  0  0
 22 25  1  0  0  0
 22 21  1  0  0  0
 23 24  1  0  0  0
 27 26  1  0  0  0
 27 28  2  0  0  0
 27 31  1  0  0  0
 27 29  1  0  0  0
 25 26  1  0  0  0
 32 33  1  0  0  0
 32 31  1  0  0  0
 29 30  1  0  0  0
 20 21  1  0  0  0
 20  2  1  0  0  0
  1  2  2  0  0  0
  2  3  1  0  0  0
  3  4  1  0  0  0
  4  5  1  0  0  0
  5  6  1  0  0  0
  6  7  1  0  0  0
  7  8  1  0  0  0
  8  9  1  0  0  0
  9 10  1  0  0  0
 10 11  2  0  0  0
 11 12  1  0  0  0
 12 13  1  0  0  0
 13 14  1  0  0  0
 14 15  1  0  0  0
 15 16  1  0  0  0
 16 17  1  0  0  0
 17 18  1  0  0  0
 18 19  1  0  0  0
M  CHG 1  28  -1
M  END
> <minimizedAffinity>
-7.81272

> <CNNscore>
0.7897855043

> <CNNaffinity>
7.2052741051

> <CNN_VS>
5.6906208992

> <CNNaffinity_variance>
0.4627202451

$$$$
/media/chris/experiments/cd1a-new-docking/inputs/ligands/4x6e_ligand.pdb


 37 36  0  0  0  0  0  0  0  0999 V2000
  -42.8501   55.6614   65.0175 O   0  0  0  0  0  0  0  0  0  0  0  0
  -42.9034   56.8283   65.3174 C   0  0  0  0  0  0  0  0  0  0  0  0
  -43.9364   57.4480   66.2077 C   0  0  0  0  0  0  0  0  0  0  0  0
  -45.3567   57.2901   65.6782 C   0  0  0  0  0  0  0  0  0  0  0  0
  -46.4128   57.1328   66.7587 C   0  0  0  0  0  0  0  0  0  0  0  0
  -47.6410   57.9970   66.5337 C   0  0  0  0  0  0  0  0  0  0  0  0
  -47.3073   59.4707   66.3769 C   0  0  0  0  0  0  0  0  0  0  0  0
  -48.4852   60.2732   65.8710 C   0  0  0  0  0  0  0  0  0  0  0  0
  -49.7684   59.4839   65.7088 C   0  0  0  0  0  0  0  0  0  0  0  0
  -50.7470   60.1061   64.7882 C   0  0  0  0  0  0  0  0  0  0  0  0
  -51.0921   59.6525   63.6008 C   0  0  0  0  0  0  0  0  0  0  0  0
  -50.6130   58.4022   62.9376 C   0  0  0  0  0  0  0  0  0  0  0  0
  -51.0163   58.4011   61.4622 C   0  0  0  0  0  0  0  0  0  0  0  0
  -50.5700   57.1840   60.6652 C   0  0  0  0  0  0  0  0  0  0  0  0
  -49.0840   56.8602   60.7619 C   0  0  0  0  0  0  0  0  0  0  0  0
  -48.4828   56.3611   59.4521 C   0  0  0  0  0  0  0  0  0  0  0  0
  -48.6654   57.3229   58.2887 C   0  0  0  0  0  0  0  0  0  0  0  0
  -47.7179   57.1151   57.1168 C   0  0  0  0  0  0  0  0  0  0  0  0
  -47.1093   55.7465   57.0991 C   0  0  0  0  0  0  0  0  0  0  0  0
  -42.0294   57.7509   64.9042 O   0  0  0  0  0  0  0  0  0  0  0  0
  -41.4948   58.6621   65.8894 C   0  0  0  0  0  0  0  0  0  0  0  0
  -41.6484   60.1051   65.4581 C   0  0  0  0  0  0  0  0  0  0  0  0
  -40.4118   60.8183   65.5939 O   0  0  0  0  0  0  0  0  0  0  0  0
  -39.7475   60.4286   65.0041 H   0  0  0  0  0  0  0  0  0  0  0  0
  -42.1512   60.2363   64.0395 C   0  0  0  0  0  0  0  0  0  0  0  0
  -41.1740   59.7715   63.0770 O   0  0  0  0  0  0  0  0  0  0  0  0
  -41.3211   59.0782   61.6370 P   0  0  0  0  0  0  0  0  0  0  0  0
  -41.8586   60.1207   60.6579 O   0  0  0  0  0  0  0  0  0  0  0  0
  -42.3044   57.9778   61.7392 O   0  0  0  0  0  0  0  0  0  0  0  0
  -43.1478   58.3270   62.0672 H   0  0  0  0  0  0  0  0  0  0  0  0
  -39.8736   58.5276   61.0833 O   0  0  0  0  0  0  0  0  0  0  0  0
  -38.6583   59.3132   60.9462 C   0  0  0  0  0  0  0  0  0  0  0  0
  -37.5302   58.6665   61.7111 C   0  0  0  0  0  0  0  0  0  0  0  0
  -37.2913   59.1725   63.1217 N   0  0  0  0  0  0  0  0  0  0  0  0
  -35.8349   59.1235   63.4561 C   0  0  0  0  0  0  0  0  0  0  0  0
  -38.0379   58.2984   64.0751 C   0  0  0  0  0  0  0  0  0  0  0  0
  -37.7738   60.5880   63.2622 C   0  0  0  0  0  0  0  0  0  0  0  0
 34 33  1  0  0  0
 34 35  1  0  0  0
 34 36  1  0  0  0
 34 37  1  0  0  0
 22 23  1  0  0  0
 22 25  1  0  0  0
 22 21  1  0  0  0
 23 24  1  0  0  0
 27 26  1  0  0  0
 27 28  2  0  0  0
 27 31  1  0  0  0
 27 29  1  0  0  0
 25 26  1  0  0  0
 32 33  1  0  0  0
 32 31  1  0  0  0
 29 30  1  0  0  0
 20 21  1  0  0  0
 20  2  1  0  0  0
  1  2  2  0  0  0
  2  3  1  0  0  0
  3  4  1  0  0  0
  4  5  1  0  0  0
  5  6  1  0  0  0
  6  7  1  0  0  0
  7  8  1  0  0  0
  8  9  1  0  0  0
  9 10  1  0  0  0
 10 11  2  0  0  0
 11 12  1  0  0  0
 12 13  1  0  0  0
 13 14  1  0  0  0
 14 15  1  0  0  0
 15 16  1  0  0  0
 16 17  1  0  0  0
 17 18  1  0  0  0
 18 19  1  0  0  0
M  CHG 1  28  -1
M  END
> <minimizedAffinity>
-7.88166

> <CNNscore>
0.7249521613

> <CNNaffinity>
6.9601883888

> <CNN_VS>
5.0458035469

> <CNNaffinity_variance>
0.4435883462

$$$$
/media/chris/experiments/cd1a-new-docking/inputs/ligands/4x6e_ligand.pdb


 37 36  0  0  0  0  0  0  0  0999 V2000
  -39.9847   58.6938   65.5845 O   0  0  0  0  0  0  0  0  0  0  0  0
  -40.3356   59.7465   66.0571 C   0  0  0  0  0  0  0  0  0  0  0  0
  -41.6977   60.0380   66.6080 C   0  0  0  0  0  0  0  0  0  0  0  0
  -42.8243   59.4712   65.7523 C   0  0  0  0  0  0  0  0  0  0  0  0
  -43.8189   58.6142   66.5164 C   0  0  0  0  0  0  0  0  0  0  0  0
  -45.1296   59.3237   66.8075 C   0  0  0  0  0  0  0  0  0  0  0  0
  -45.9188   59.6487   65.5508 C   0  0  0  0  0  0  0  0  0  0  0  0
  -47.1388   58.7681   65.3979 C   0  0  0  0  0  0  0  0  0  0  0  0
  -48.3806   59.2757   66.1022 C   0  0  0  0  0  0  0  0  0  0  0  0
  -49.6125   58.5248   65.7693 C   0  0  0  0  0  0  0  0  0  0  0  0
  -50.4517   58.8047   64.7935 C   0  0  0  0  0  0  0  0  0  0  0  0
  -50.3332   59.9034   63.7878 C   0  0  0  0  0  0  0  0  0  0  0  0
  -50.9302   59.4604   62.4511 C   0  0  0  0  0  0  0  0  0  0  0  0
  -50.6960   58.0024   62.0837 C   0  0  0  0  0  0  0  0  0  0  0  0
  -50.8956   57.6694   60.6100 C   0  0  0  0  0  0  0  0  0  0  0  0
  -49.6014   57.6766   59.8031 C   0  0  0  0  0  0  0  0  0  0  0  0
  -48.8822   56.3371   59.7871 C   0  0  0  0  0  0  0  0  0  0  0  0
  -47.7823   56.2007   58.7450 C   0  0  0  0  0  0  0  0  0  0  0  0
  -48.0143   57.0615   57.5413 C   0  0  0  0  0  0  0  0  0  0  0  0
  -39.5464   60.8187   66.1720 O   0  0  0  0  0  0  0  0  0  0  0  0
  -38.1178   60.6140   66.1088 C   0  0  0  0  0  0  0  0  0  0  0  0
  -37.4642   61.5394   65.1046 C   0  0  0  0  0  0  0  0  0  0  0  0
  -37.0696   62.7727   65.7207 O   0  0  0  0  0  0  0  0  0  0  0  0
  -36.4010   62.5951   66.4005 H   0  0  0  0  0  0  0  0  0  0  0  0
  -36.2685   60.9103   64.4285 C   0  0  0  0  0  0  0  0  0  0  0  0
  -36.6632   60.0127   63.3627 O   0  0  0  0  0  0  0  0  0  0  0  0
  -36.3618   58.4600   63.0907 P   0  0  0  0  0  0  0  0  0  0  0  0
  -36.6398   57.6870   64.3789 O   0  0  0  0  0  0  0  0  0  0  0  0
  -34.9304   58.3078   62.7503 O   0  0  0  0  0  0  0  0  0  0  0  0
  -34.3869   58.6676   63.4687 H   0  0  0  0  0  0  0  0  0  0  0  0
  -37.3203   57.8610   61.8959 O   0  0  0  0  0  0  0  0  0  0  0  0
  -38.1238   58.6458   60.9732 C   0  0  0  0  0  0  0  0  0  0  0  0
  -39.3446   57.8661   60.5516 C   0  0  0  0  0  0  0  0  0  0  0  0
  -40.6094   58.1015   61.3563 N   0  0  0  0  0  0  0  0  0  0  0  0
  -40.8644   56.9533   62.2792 C   0  0  0  0  0  0  0  0  0  0  0  0
  -41.7592   58.2296   60.4117 C   0  0  0  0  0  0  0  0  0  0  0  0
  -40.4904   59.3593   62.1686 C   0  0  0  0  0  0  0  0  0  0  0  0
 34 33  1  0  0  0
 34 35  1  0  0  0
 34 36  1  0  0  0
 34 37  1  0  0  0
 22 23  1  0  0  0
 22 25  1  0  0  0
 22 21  1  0  0  0
 23 24  1  0  0  0
 27 26  1  0  0  0
 27 28  2  0  0  0
 27 31  1  0  0  0
 27 29  1  0  0  0
 25 26  1  0  0  0
 32 33  1  0  0  0
 32 31  1  0  0  0
 29 30  1  0  0  0
 20 21  1  0  0  0
 20  2  1  0  0  0
  1  2  2  0  0  0
  2  3  1  0  0  0
  3  4  1  0  0  0
  4  5  1  0  0  0
  5  6  1  0  0  0
  6  7  1  0  0  0
  7  8  1  0  0  0
  8  9  1  0  0  0
  9 10  1  0  0  0
 10 11  2  0  0  0
 11 12  1  0  0  0
 12 13  1  0  0  0
 13 14  1  0  0  0
 14 15  1  0  0  0
 15 16  1  0  0  0
 16 17  1  0  0  0
 17 18  1  0  0  0
 18 19  1  0  0  0
M  CHG 1  28  -1
M  END
> <minimizedAffinity>
-8.11655

> <CNNscore>
0.7031344771

> <CNNaffinity>
7.0777482986

> <CNN_VS>
4.9766087532

> <CNNaffinity_variance>
0.2181460857

$$$$
/media/chris/experiments/cd1a-new-docking/inputs/ligands/4x6e_ligand.pdb


 37 36  0  0  0  0  0  0  0  0999 V2000
  -41.4052   57.1685   63.6127 O   0  0  0  0  0  0  0  0  0  0  0  0
  -41.0119   57.8200   64.5483 C   0  0  0  0  0  0  0  0  0  0  0  0
  -41.8075   58.1412   65.7762 C   0  0  0  0  0  0  0  0  0  0  0  0
  -43.3036   58.2539   65.5085 C   0  0  0  0  0  0  0  0  0  0  0  0
  -44.1707   57.4384   66.4523 C   0  0  0  0  0  0  0  0  0  0  0  0
  -45.5837   57.2222   65.9400 C   0  0  0  0  0  0  0  0  0  0  0  0
  -46.1771   58.4642   65.2973 C   0  0  0  0  0  0  0  0  0  0  0  0
  -46.6203   59.4830   66.3235 C   0  0  0  0  0  0  0  0  0  0  0  0
  -48.1139   59.7346   66.3644 C   0  0  0  0  0  0  0  0  0  0  0  0
  -48.9319   58.5830   65.9203 C   0  0  0  0  0  0  0  0  0  0  0  0
  -50.1069   58.6483   65.3287 C   0  0  0  0  0  0  0  0  0  0  0  0
  -50.8540   59.8821   64.9385 C   0  0  0  0  0  0  0  0  0  0  0  0
  -51.0767   59.9064   63.4254 C   0  0  0  0  0  0  0  0  0  0  0  0
  -49.8122   59.9708   62.5813 C   0  0  0  0  0  0  0  0  0  0  0  0
  -49.4338   58.6678   61.8874 C   0  0  0  0  0  0  0  0  0  0  0  0
  -50.6132   57.9686   61.2193 C   0  0  0  0  0  0  0  0  0  0  0  0
  -50.3529   57.5748   59.7740 C   0  0  0  0  0  0  0  0  0  0  0  0
  -48.9811   56.9774   59.4985 C   0  0  0  0  0  0  0  0  0  0  0  0
  -48.4644   57.3170   58.1342 C   0  0  0  0  0  0  0  0  0  0  0  0
  -39.7874   58.3480   64.6343 O   0  0  0  0  0  0  0  0  0  0  0  0
  -39.3067   59.1218   63.5132 C   0  0  0  0  0  0  0  0  0  0  0  0
  -37.8124   58.9666   63.3262 C   0  0  0  0  0  0  0  0  0  0  0  0
  -37.2676   60.0700   62.5900 O   0  0  0  0  0  0  0  0  0  0  0  0
  -37.3939   60.8890   63.0942 H   0  0  0  0  0  0  0  0  0  0  0  0
  -37.0753   58.8244   64.6373 C   0  0  0  0  0  0  0  0  0  0  0  0
  -36.5465   60.0915   65.0978 O   0  0  0  0  0  0  0  0  0  0  0  0
  -37.2540   61.4130   65.6713 P   0  0  0  0  0  0  0  0  0  0  0  0
  -38.5818   61.0057   66.3080 O   0  0  0  0  0  0  0  0  0  0  0  0
  -37.5342   62.3280   64.5432 O   0  0  0  0  0  0  0  0  0  0  0  0
  -38.0834   61.8725   63.8860 H   0  0  0  0  0  0  0  0  0  0  0  0
  -36.3232   62.1479   66.8108 O   0  0  0  0  0  0  0  0  0  0  0  0
  -35.5134   63.3386   66.6123 C   0  0  0  0  0  0  0  0  0  0  0  0
  -34.0734   62.9564   66.3751 C   0  0  0  0  0  0  0  0  0  0  0  0
  -33.4481   63.4433   65.0811 N   0  0  0  0  0  0  0  0  0  0  0  0
  -32.0287   63.8546   65.3075 C   0  0  0  0  0  0  0  0  0  0  0  0
  -34.2227   64.6222   64.5905 C   0  0  0  0  0  0  0  0  0  0  0  0
  -33.4789   62.3600   64.0410 C   0  0  0  0  0  0  0  0  0  0  0  0
 34 33  1  0  0  0
 34 35  1  0  0  0
 34 36  1  0  0  0
 34 37  1  0  0  0
 22 23  1  0  0  0
 22 25  1  0  0  0
 22 21  1  0  0  0
 23 24  1  0  0  0
 27 26  1  0  0  0
 27 28  2  0  0  0
 27 31  1  0  0  0
 27 29  1  0  0  0
 25 26  1  0  0  0
 32 33  1  0  0  0
 32 31  1  0  0  0
 29 30  1  0  0  0
 20 21  1  0  0  0
 20  2  1  0  0  0
  1  2  2  0  0  0
  2  3  1  0  0  0
  3  4  1  0  0  0
  4  5  1  0  0  0
  5  6  1  0  0  0
  6  7  1  0  0  0
  7  8  1  0  0  0
  8  9  1  0  0  0
  9 10  1  0  0  0
 10 11  2  0  0  0
 11 12  1  0  0  0
 12 13  1  0  0  0
 13 14  1  0  0  0
 14 15  1  0  0  0
 15 16  1  0  0  0
 16 17  1  0  0  0
 17 18  1  0  0  0
 18 19  1  0  0  0
M  CHG 1  28  -1
M  END
> <minimizedAffinity>
-7.63686

> <CNNscore>
0.6727910638

> <CNNaffinity>
6.2798275948

> <CNN_VS>
4.2250118256

> <CNNaffinity_variance>
0.0400023684

$$$$
/media/chris/experiments/cd1a-new-docking/inputs/ligands/4x6e_ligand.pdb


 37 36  0  0  0  0  0  0  0  0999 V2000
  -42.8472   57.3739   64.3921 O   0  0  0  0  0  0  0  0  0  0  0  0
  -42.4158   58.4995   64.4296 C   0  0  0  0  0  0  0  0  0  0  0  0
  -43.1944   59.7130   64.8359 C   0  0  0  0  0  0  0  0  0  0  0  0
  -44.2418   60.1249   63.8083 C   0  0  0  0  0  0  0  0  0  0  0  0
  -45.6356   59.5891   64.0871 C   0  0  0  0  0  0  0  0  0  0  0  0
  -45.9442   59.4488   65.5673 C   0  0  0  0  0  0  0  0  0  0  0  0
  -46.1892   58.0096   65.9873 C   0  0  0  0  0  0  0  0  0  0  0  0
  -47.6272   57.7678   66.3886 C   0  0  0  0  0  0  0  0  0  0  0  0
  -48.5942   57.6259   65.2308 C   0  0  0  0  0  0  0  0  0  0  0  0
  -49.7866   58.4981   65.3304 C   0  0  0  0  0  0  0  0  0  0  0  0
  -50.3717   59.1290   64.3332 C   0  0  0  0  0  0  0  0  0  0  0  0
  -49.9968   59.0770   62.8877 C   0  0  0  0  0  0  0  0  0  0  0  0
  -51.1772   58.5733   62.0554 C   0  0  0  0  0  0  0  0  0  0  0  0
  -50.8462   57.4812   61.0488 C   0  0  0  0  0  0  0  0  0  0  0  0
  -49.3617   57.1695   60.9013 C   0  0  0  0  0  0  0  0  0  0  0  0
  -48.9007   57.0731   59.4507 C   0  0  0  0  0  0  0  0  0  0  0  0
  -47.8276   56.0215   59.2177 C   0  0  0  0  0  0  0  0  0  0  0  0
  -47.3984   55.8384   57.7697 C   0  0  0  0  0  0  0  0  0  0  0  0
  -47.5707   57.0818   56.9524 C   0  0  0  0  0  0  0  0  0  0  0  0
  -41.1588   58.8329   64.1221 O   0  0  0  0  0  0  0  0  0  0  0  0
  -40.1905   58.8716   65.1933 C   0  0  0  0  0  0  0  0  0  0  0  0
  -39.4927   60.2131   65.2682 C   0  0  0  0  0  0  0  0  0  0  0  0
  -38.5506   60.2446   66.3488 O   0  0  0  0  0  0  0  0  0  0  0  0
  -37.8558   59.5864   66.1913 H   0  0  0  0  0  0  0  0  0  0  0  0
  -38.7919   60.5752   63.9797 C   0  0  0  0  0  0  0  0  0  0  0  0
  -38.1737   61.8829   64.0522 O   0  0  0  0  0  0  0  0  0  0  0  0
  -36.6614   62.3497   64.3182 P   0  0  0  0  0  0  0  0  0  0  0  0
  -35.7281   61.3780   63.5976 O   0  0  0  0  0  0  0  0  0  0  0  0
  -36.3903   62.2730   65.7704 O   0  0  0  0  0  0  0  0  0  0  0  0
  -36.5569   61.3700   66.0833 H   0  0  0  0  0  0  0  0  0  0  0  0
  -36.3904   63.8676   63.7460 O   0  0  0  0  0  0  0  0  0  0  0  0
  -35.1895   64.3198   63.0630 C   0  0  0  0  0  0  0  0  0  0  0  0
  -34.2356   64.9497   64.0476 C   0  0  0  0  0  0  0  0  0  0  0  0
  -32.8378   64.3621   64.1065 N   0  0  0  0  0  0  0  0  0  0  0  0
  -32.7562   63.1204   63.2778 C   0  0  0  0  0  0  0  0  0  0  0  0
  -32.5232   64.0201   65.5258 C   0  0  0  0  0  0  0  0  0  0  0  0
  -31.8287   65.3517   63.5978 C   0  0  0  0  0  0  0  0  0  0  0  0
 34 33  1  0  0  0
 34 35  1  0  0  0
 34 36  1  0  0  0
 34 37  1  0  0  0
 22 23  1  0  0  0
 22 25  1  0  0  0
 22 21  1  0  0  0
 23 24  1  0  0  0
 27 26  1  0  0  0
 27 28  2  0  0  0
 27 31  1  0  0  0
 27 29  1  0  0  0
 25 26  1  0  0  0
 32 33  1  0  0  0
 32 31  1  0  0  0
 29 30  1  0  0  0
 20 21  1  0  0  0
 20  2  1  0  0  0
  1  2  2  0  0  0
  2  3  1  0  0  0
  3  4  1  0  0  0
  4  5  1  0  0  0
  5  6  1  0  0  0
  6  7  1  0  0  0
  7  8  1  0  0  0
  8  9  1  0  0  0
  9 10  1  0  0  0
 10 11  2  0  0  0
 11 12  1  0  0  0
 12 13  1  0  0  0
 13 14  1  0  0  0
 14 15  1  0  0  0
 15 16  1  0  0  0
 16 17  1  0  0  0
 17 18  1  0  0  0
 18 19  1  0  0  0
M  CHG 1  28  -1
M  END
> <minimizedAffinity>
-7.62833

> <CNNscore>
0.6369612217

> <CNNaffinity>
6.3505182266

> <CNN_VS>
4.0450339317

> <CNNaffinity_variance>
0.2719650269

$$$$
/media/chris/experiments/cd1a-new-docking/inputs/ligands/4x6e_ligand.pdb


 37 36  0  0  0  0  0  0  0  0999 V2000
  -40.1286   56.4399   62.4837 O   0  0  0  0  0  0  0  0  0  0  0  0
  -40.8789   57.0517   63.2029 C   0  0  0  0  0  0  0  0  0  0  0  0
  -41.8577   56.4386   64.1568 C   0  0  0  0  0  0  0  0  0  0  0  0
  -42.5093   57.4573   65.0843 C   0  0  0  0  0  0  0  0  0  0  0  0
  -43.9569   57.1524   65.4292 C   0  0  0  0  0  0  0  0  0  0  0  0
  -44.5595   58.1283   66.4244 C   0  0  0  0  0  0  0  0  0  0  0  0
  -44.8090   59.5032   65.8285 C   0  0  0  0  0  0  0  0  0  0  0  0
  -46.1858   59.6188   65.2134 C   0  0  0  0  0  0  0  0  0  0  0  0
  -47.3331   59.4426   66.1873 C   0  0  0  0  0  0  0  0  0  0  0  0
  -48.2125   58.2913   65.8815 C   0  0  0  0  0  0  0  0  0  0  0  0
  -49.5112   58.3424   65.6682 C   0  0  0  0  0  0  0  0  0  0  0  0
  -50.3754   59.5612   65.6455 C   0  0  0  0  0  0  0  0  0  0  0  0
  -50.9671   59.7612   64.2492 C   0  0  0  0  0  0  0  0  0  0  0  0
  -49.9790   60.2031   63.1796 C   0  0  0  0  0  0  0  0  0  0  0  0
  -50.2247   59.6174   61.7942 C   0  0  0  0  0  0  0  0  0  0  0  0
  -50.8989   58.2497   61.8219 C   0  0  0  0  0  0  0  0  0  0  0  0
  -50.5164   57.3547   60.6538 C   0  0  0  0  0  0  0  0  0  0  0  0
  -49.9288   58.0727   59.4481 C   0  0  0  0  0  0  0  0  0  0  0  0
  -48.8831   57.2635   58.7444 C   0  0  0  0  0  0  0  0  0  0  0  0
  -40.9397   58.3852   63.2648 O   0  0  0  0  0  0  0  0  0  0  0  0
  -40.1590   59.1405   62.3126 C   0  0  0  0  0  0  0  0  0  0  0  0
  -39.9836   60.5795   62.7493 C   0  0  0  0  0  0  0  0  0  0  0  0
  -40.4273   60.7660   64.1001 O   0  0  0  0  0  0  0  0  0  0  0  0
  -39.8790   60.2331   64.6970 H   0  0  0  0  0  0  0  0  0  0  0  0
  -38.5557   61.0554   62.6191 C   0  0  0  0  0  0  0  0  0  0  0  0
  -38.2837   62.1848   63.4839 O   0  0  0  0  0  0  0  0  0  0  0  0
  -36.9373   62.7132   64.1793 P   0  0  0  0  0  0  0  0  0  0  0  0
  -37.0782   62.5342   65.6901 O   0  0  0  0  0  0  0  0  0  0  0  0
  -36.7885   64.1560   63.8883 O   0  0  0  0  0  0  0  0  0  0  0  0
  -37.5745   64.6315   64.1999 H   0  0  0  0  0  0  0  0  0  0  0  0
  -35.6229   61.8684   63.6658 O   0  0  0  0  0  0  0  0  0  0  0  0
  -34.9766   60.7798   64.3801 C   0  0  0  0  0  0  0  0  0  0  0  0
  -35.9091   59.5985   64.4848 C   0  0  0  0  0  0  0  0  0  0  0  0
  -35.5050   58.3476   63.7267 N   0  0  0  0  0  0  0  0  0  0  0  0
  -36.3390   58.1885   62.4961 C   0  0  0  0  0  0  0  0  0  0  0  0
  -35.7157   57.1637   64.6123 C   0  0  0  0  0  0  0  0  0  0  0  0
  -34.0589   58.4185   63.3265 C   0  0  0  0  0  0  0  0  0  0  0  0
 34 33  1  0  0  0
 34 35  1  0  0  0
 34 36  1  0  0  0
 34 37  1  0  0  0
 22 23  1  0  0  0
 22 25  1  0  0  0
 22 21  1  0  0  0
 23 24  1  0  0  0
 27 26  1  0  0  0
 27 28  2  0  0  0
 27 31  1  0  0  0
 27 29  1  0  0  0
 25 26  1  0  0  0
 32 33  1  0  0  0
 32 31  1  0  0  0
 29 30  1  0  0  0
 20 21  1  0  0  0
 20  2  1  0  0  0
  1  2  2  0  0  0
  2  3  1  0  0  0
  3  4  1  0  0  0
  4  5  1  0  0  0
  5  6  1  0  0  0
  6  7  1  0  0  0
  7  8  1  0  0  0
  8  9  1  0  0  0
  9 10  1  0  0  0
 10 11  2  0  0  0
 11 12  1  0  0  0
 12 13  1  0  0  0
 13 14  1  0  0  0
 14 15  1  0  0  0
 15 16  1  0  0  0
 16 17  1  0  0  0
 17 18  1  0  0  0
 18 19  1  0  0  0
M  CHG 1  28  -1
M  END
> <minimizedAffinity>
-7.75907

> <CNNscore>
0.6054057479

> <CNNaffinity>
6.5146837234

> <CNN_VS>
3.9440269470

> <CNNaffinity_variance>
0.1295076907

$$$$
/media/chris/experiments/cd1a-new-docking/inputs/ligands/4x6e_ligand.pdb


 37 36  0  0  0  0  0  0  0  0999 V2000
  -41.2999   61.2670   66.4872 O   0  0  0  0  0  0  0  0  0  0  0  0
  -41.2126   60.1344   66.0822 C   0  0  0  0  0  0  0  0  0  0  0  0
  -42.0725   58.9887   66.5200 C   0  0  0  0  0  0  0  0  0  0  0  0
  -43.4716   59.4177   66.9454 C   0  0  0  0  0  0  0  0  0  0  0  0
  -44.5922   58.6083   66.3154 C   0  0  0  0  0  0  0  0  0  0  0  0
  -44.5981   58.6634   64.7979 C   0  0  0  0  0  0  0  0  0  0  0  0
  -45.9964   58.7753   64.2150 C   0  0  0  0  0  0  0  0  0  0  0  0
  -46.6108   60.1355   64.4594 C   0  0  0  0  0  0  0  0  0  0  0  0
  -48.0762   60.1104   64.8440 C   0  0  0  0  0  0  0  0  0  0  0  0
  -48.9717   60.7439   63.8495 C   0  0  0  0  0  0  0  0  0  0  0  0
  -49.9957   60.1706   63.2515 C   0  0  0  0  0  0  0  0  0  0  0  0
  -50.5061   58.7829   63.4670 C   0  0  0  0  0  0  0  0  0  0  0  0
  -50.8134   58.1203   62.1231 C   0  0  0  0  0  0  0  0  0  0  0  0
  -49.6187   57.9354   61.1989 C   0  0  0  0  0  0  0  0  0  0  0  0
  -49.8848   58.2487   59.7314 C   0  0  0  0  0  0  0  0  0  0  0  0
  -49.1155   57.3511   58.7678 C   0  0  0  0  0  0  0  0  0  0  0  0
  -48.2063   56.3476   59.4591 C   0  0  0  0  0  0  0  0  0  0  0  0
  -47.1237   55.7371   58.5817 C   0  0  0  0  0  0  0  0  0  0  0  0
  -47.0769   56.3432   57.2127 C   0  0  0  0  0  0  0  0  0  0  0  0
  -40.3320   59.7316   65.1613 O   0  0  0  0  0  0  0  0  0  0  0  0
  -40.3155   60.4266   63.8950 C   0  0  0  0  0  0  0  0  0  0  0  0
  -41.6335   60.2867   63.1632 C   0  0  0  0  0  0  0  0  0  0  0  0
  -42.5674   61.2889   63.5872 O   0  0  0  0  0  0  0  0  0  0  0  0
  -42.2239   62.1674   63.3609 H   0  0  0  0  0  0  0  0  0  0  0  0
  -41.4735   60.3516   61.6623 C   0  0  0  0  0  0  0  0  0  0  0  0
  -41.4930   59.0341   61.0615 O   0  0  0  0  0  0  0  0  0  0  0  0
  -40.4504   57.8145   61.0981 P   0  0  0  0  0  0  0  0  0  0  0  0
  -40.3330   57.2441   59.6856 O   0  0  0  0  0  0  0  0  0  0  0  0
  -40.9850   56.7607   61.9881 O   0  0  0  0  0  0  0  0  0  0  0  0
  -41.8611   56.4864   61.6747 H   0  0  0  0  0  0  0  0  0  0  0  0
  -38.9627   58.3090   61.5954 O   0  0  0  0  0  0  0  0  0  0  0  0
  -38.0293   57.5330   62.3950 C   0  0  0  0  0  0  0  0  0  0  0  0
  -36.6389   58.1063   62.2762 C   0  0  0  0  0  0  0  0  0  0  0  0
  -35.9547   58.4972   63.5730 N   0  0  0  0  0  0  0  0  0  0  0  0
  -35.9750   57.3574   64.5403 C   0  0  0  0  0  0  0  0  0  0  0  0
  -36.6879   59.6534   64.1698 C   0  0  0  0  0  0  0  0  0  0  0  0
  -34.5278   58.8912   63.3178 C   0  0  0  0  0  0  0  0  0  0  0  0
 34 33  1  0  0  0
 34 35  1  0  0  0
 34 36  1  0  0  0
 34 37  1  0  0  0
 22 23  1  0  0  0
 22 25  1  0  0  0
 22 21  1  0  0  0
 23 24  1  0  0  0
 27 26  1  0  0  0
 27 28  2  0  0  0
 27 31  1  0  0  0
 27 29  1  0  0  0
 25 26  1  0  0  0
 32 33  1  0  0  0
 32 31  1  0  0  0
 29 30  1  0  0  0
 20 21  1  0  0  0
 20  2  1  0  0  0
  1  2  2  0  0  0
  2  3  1  0  0  0
  3  4  1  0  0  0
  4  5  1  0  0  0
  5  6  1  0  0  0
  6  7  1  0  0  0
  7  8  1  0  0  0
  8  9  1  0  0  0
  9 10  1  0  0  0
 10 11  2  0  0  0
 11 12  1  0  0  0
 12 13  1  0  0  0
 13 14  1  0  0  0
 14 15  1  0  0  0
 15 16  1  0  0  0
 16 17  1  0  0  0
 17 18  1  0  0  0
 18 19  1  0  0  0
M  CHG 1  28  -1
M  END
> <minimizedAffinity>
-7.62008

> <CNNscore>
0.5409419537

> <CNNaffinity>
6.6945624352

> <CNN_VS>
3.6213696003

> <CNNaffinity_variance>
0.3714196384

$$$$
