/media/chris/experiments/cd1a-new-docking/inputs/ligands/4x6e_ligand.pdb


 37 36  0  0  0  0  0  0  0  0999 V2000
  -41.4578   60.9651   66.6353 O   0  0  0  0  0  0  0  0  0  0  0  0
  -42.0491   60.0330   66.1491 C   0  0  0  0  0  0  0  0  0  0  0  0
  -43.1637   59.2768   66.8045 C   0  0  0  0  0  0  0  0  0  0  0  0
  -44.5051   59.4603   66.1049 C   0  0  0  0  0  0  0  0  0  0  0  0
  -45.7035   59.0116   66.9234 C   0  0  0  0  0  0  0  0  0  0  0  0
  -46.2557   57.6627   66.4971 C   0  0  0  0  0  0  0  0  0  0  0  0
  -47.7011   57.7339   66.0353 C   0  0  0  0  0  0  0  0  0  0  0  0
  -47.8398   58.4168   64.6929 C   0  0  0  0  0  0  0  0  0  0  0  0
  -48.5562   59.7514   64.7305 C   0  0  0  0  0  0  0  0  0  0  0  0
  -49.9921   59.6558   65.0783 C   0  0  0  0  0  0  0  0  0  0  0  0
  -51.0007   59.7198   64.2337 C   0  0  0  0  0  0  0  0  0  0  0  0
  -50.9269   59.8603   62.7480 C   0  0  0  0  0  0  0  0  0  0  0  0
  -51.0205   58.4857   62.0836 C   0  0  0  0  0  0  0  0  0  0  0  0
  -49.7498   58.0048   61.3986 C   0  0  0  0  0  0  0  0  0  0  0  0
  -49.9595   56.9502   60.3186 C   0  0  0  0  0  0  0  0  0  0  0  0
  -48.8353   55.9223   60.2443 C   0  0  0  0  0  0  0  0  0  0  0  0
  -47.9326   56.0887   59.0321 C   0  0  0  0  0  0  0  0  0  0  0  0
  -48.2893   57.2433   58.1079 C   0  0  0  0  0  0  0  0  0  0  0  0
  -47.7727   57.0518   56.7151 C   0  0  0  0  0  0  0  0  0  0  0  0
  -41.8020   59.5387   64.9325 O   0  0  0  0  0  0  0  0  0  0  0  0
  -40.4594   59.6639   64.4139 C   0  0  0  0  0  0  0  0  0  0  0  0
  -40.4584   60.1032   62.9650 C   0  0  0  0  0  0  0  0  0  0  0  0
  -41.6026   60.9165   62.6722 O   0  0  0  0  0  0  0  0  0  0  0  0
  -41.5660   61.7286   63.2014 H   0  0  0  0  0  0  0  0  0  0  0  0
  -39.2008   60.8497   62.5860 C   0  0  0  0  0  0  0  0  0  0  0  0
  -38.4767   61.3113   63.7522 O   0  0  0  0  0  0  0  0  0  0  0  0
  -37.1222   62.1559   63.9184 P   0  0  0  0  0  0  0  0  0  0  0  0
  -37.0750   63.2057   62.8094 O   0  0  0  0  0  0  0  0  0  0  0  0
  -35.9707   61.2424   63.7510 O   0  0  0  0  0  0  0  0  0  0  0  0
  -36.0278   60.8051   62.8870 H   0  0  0  0  0  0  0  0  0  0  0  0
  -37.0637   62.9195   65.3739 O   0  0  0  0  0  0  0  0  0  0  0  0
  -35.9517   62.8879   66.3095 C   0  0  0  0  0  0  0  0  0  0  0  0
  -35.3004   64.2463   66.3915 C   0  0  0  0  0  0  0  0  0  0  0  0
  -33.9843   64.4117   65.6545 N   0  0  0  0  0  0  0  0  0  0  0  0
  -33.2444   63.1135   65.6057 C   0  0  0  0  0  0  0  0  0  0  0  0
  -33.1532   65.4173   66.3815 C   0  0  0  0  0  0  0  0  0  0  0  0
  -34.2236   64.8864   64.2495 C   0  0  0  0  0  0  0  0  0  0  0  0
 34 33  1  0  0  0
 34 35  1  0  0  0
 34 36  1  0  0  0
 34 37  1  0  0  0
 22 23  1  0  0  0
 22 25  1  0  0  0
 22 21  1  0  0  0
 23 24  1  0  0  0
 27 26  1  0  0  0
 27 28  2  0  0  0
 27 31  1  0  0  0
 27 29  1  0  0  0
 25 26  1  0  0  0
 32 33  1  0  0  0
 32 31  1  0  0  0
 29 30  1  0  0  0
 20 21  1  0  0  0
 20  2  1  0  0  0
  1  2  2  0  0  0
  2  3  1  0  0  0
  3  4  1  0  0  0
  4  5  1  0  0  0
  5  6  1  0  0  0
  6  7  1  0  0  0
  7  8  1  0  0  0
  8  9  1  0  0  0
  9 10  1  0  0  0
 10 11  2  0  0  0
 11 12  1  0  0  0
 12 13  1  0  0  0
 13 14  1  0  0  0
 14 15  1  0  0  0
 15 16  1  0  0  0
 16 17  1  0  0  0
 17 18  1  0  0  0
 18 19  1  0  0  0
M  CHG 1  28  -1
M  END
> <minimizedAffinity>
-7.95366

> <CNNscore>
0.7654548287

> <CNNaffinity>
6.4574766159

> <CNN_VS>
4.9429068565

> <CNNaffinity_variance>
0.4464277327

$$$$
/media/chris/experiments/cd1a-new-docking/inputs/ligands/4x6e_ligand.pdb


 37 36  0  0  0  0  0  0  0  0999 V2000
  -42.6798   59.4055   67.2332 O   0  0  0  0  0  0  0  0  0  0  0  0
  -42.3257   58.5914   66.4168 C   0  0  0  0  0  0  0  0  0  0  0  0
  -42.9923   57.2746   66.1606 C   0  0  0  0  0  0  0  0  0  0  0  0
  -44.4451   57.4135   65.7218 C   0  0  0  0  0  0  0  0  0  0  0  0
  -44.6440   58.2635   64.4787 C   0  0  0  0  0  0  0  0  0  0  0  0
  -45.9817   58.9817   64.4453 C   0  0  0  0  0  0  0  0  0  0  0  0
  -46.3108   59.6812   65.7529 C   0  0  0  0  0  0  0  0  0  0  0  0
  -47.5079   59.0676   66.4443 C   0  0  0  0  0  0  0  0  0  0  0  0
  -48.3554   58.1682   65.5676 C   0  0  0  0  0  0  0  0  0  0  0  0
  -49.8097   58.4286   65.6637 C   0  0  0  0  0  0  0  0  0  0  0  0
  -50.5091   59.2222   64.8790 C   0  0  0  0  0  0  0  0  0  0  0  0
  -50.0103   59.9983   63.7036 C   0  0  0  0  0  0  0  0  0  0  0  0
  -50.7358   59.5538   62.4326 C   0  0  0  0  0  0  0  0  0  0  0  0
  -50.7175   58.0566   62.1612 C   0  0  0  0  0  0  0  0  0  0  0  0
  -50.9171   57.6638   60.7023 C   0  0  0  0  0  0  0  0  0  0  0  0
  -49.7777   56.8224   60.1367 C   0  0  0  0  0  0  0  0  0  0  0  0
  -49.0625   57.4707   58.9620 C   0  0  0  0  0  0  0  0  0  0  0  0
  -47.9997   56.6126   58.2923 C   0  0  0  0  0  0  0  0  0  0  0  0
  -47.7497   57.0055   56.8687 C   0  0  0  0  0  0  0  0  0  0  0  0
  -41.2797   58.7515   65.6008 O   0  0  0  0  0  0  0  0  0  0  0  0
  -40.4557   59.9240   65.7834 C   0  0  0  0  0  0  0  0  0  0  0  0
  -39.0206   59.5558   66.0953 C   0  0  0  0  0  0  0  0  0  0  0  0
  -38.5758   58.4709   65.2697 O   0  0  0  0  0  0  0  0  0  0  0  0
  -38.5887   58.7460   64.3397 H   0  0  0  0  0  0  0  0  0  0  0  0
  -38.0754   60.7243   65.9422 C   0  0  0  0  0  0  0  0  0  0  0  0
  -38.3584   61.4925   64.7475 O   0  0  0  0  0  0  0  0  0  0  0  0
  -37.9989   61.2567   63.2012 P   0  0  0  0  0  0  0  0  0  0  0  0
  -36.9317   60.1665   63.1200 O   0  0  0  0  0  0  0  0  0  0  0  0
  -37.4358   62.5085   62.6495 O   0  0  0  0  0  0  0  0  0  0  0  0
  -36.6616   62.7722   63.1710 H   0  0  0  0  0  0  0  0  0  0  0  0
  -39.3167   60.7735   62.3438 O   0  0  0  0  0  0  0  0  0  0  0  0
  -39.3342   59.7506   61.3112 C   0  0  0  0  0  0  0  0  0  0  0  0
  -39.6355   58.4025   61.9177 C   0  0  0  0  0  0  0  0  0  0  0  0
  -40.9893   57.8002   61.5904 N   0  0  0  0  0  0  0  0  0  0  0  0
  -42.0456   58.8581   61.5840 C   0  0  0  0  0  0  0  0  0  0  0  0
  -41.3249   56.7852   62.6335 C   0  0  0  0  0  0  0  0  0  0  0  0
  -40.9589   57.1372   60.2428 C   0  0  0  0  0  0  0  0  0  0  0  0
 34 33  1  0  0  0
 34 35  1  0  0  0
 34 36  1  0  0  0
 34 37  1  0  0  0
 22 23  1  0  0  0
 22 25  1  0  0  0
 22 21  1  0  0  0
 23 24  1  0  0  0
 27 26  1  0  0  0
 27 28  2  0  0  0
 27 31  1  0  0  0
 27 29  1  0  0  0
 25 26  1  0  0  0
 32 33  1  0  0  0
 32 31  1  0  0  0
 29 30  1  0  0  0
 20 21  1  0  0  0
 20  2  1  0  0  0
  1  2  2  0  0  0
  2  3  1  0  0  0
  3  4  1  0  0  0
  4  5  1  0  0  0
  5  6  1  0  0  0
  6  7  1  0  0  0
  7  8  1  0  0  0
  8  9  1  0  0  0
  9 10  1  0  0  0
 10 11  2  0  0  0
 11 12  1  0  0  0
 12 13  1  0  0  0
 13 14  1  0  0  0
 14 15  1  0  0  0
 15 16  1  0  0  0
 16 17  1  0  0  0
 17 18  1  0  0  0
 18 19  1  0  0  0
M  CHG 1  28  -1
M  END
> <minimizedAffinity>
-8.08758

> <CNNscore>
0.7425600886

> <CNNaffinity>
7.0848937035

> <CNN_VS>
5.2609591484

> <CNNaffinity_variance>
0.2670758367

$$$$
/media/chris/experiments/cd1a-new-docking/inputs/ligands/4x6e_ligand.pdb


 37 36  0  0  0  0  0  0  0  0999 V2000
  -40.9978   60.8944   66.2452 O   0  0  0  0  0  0  0  0  0  0  0  0
  -41.0945   59.8430   65.6622 C   0  0  0  0  0  0  0  0  0  0  0  0
  -41.9942   58.7125   66.0573 C   0  0  0  0  0  0  0  0  0  0  0  0
  -43.2853   58.6633   65.2490 C   0  0  0  0  0  0  0  0  0  0  0  0
  -44.2762   59.7641   65.5864 C   0  0  0  0  0  0  0  0  0  0  0  0
  -45.5527   59.2517   66.2299 C   0  0  0  0  0  0  0  0  0  0  0  0
  -46.4851   58.5758   65.2393 C   0  0  0  0  0  0  0  0  0  0  0  0
  -47.0992   59.5599   64.2687 C   0  0  0  0  0  0  0  0  0  0  0  0
  -48.2254   60.3968   64.8406 C   0  0  0  0  0  0  0  0  0  0  0  0
  -49.2796   59.6080   65.5177 C   0  0  0  0  0  0  0  0  0  0  0  0
  -50.3943   59.1709   64.9690 C   0  0  0  0  0  0  0  0  0  0  0  0
  -50.8253   59.3333   63.5476 C   0  0  0  0  0  0  0  0  0  0  0  0
  -50.3394   58.1484   62.7112 C   0  0  0  0  0  0  0  0  0  0  0  0
  -50.8149   58.1320   61.2659 C   0  0  0  0  0  0  0  0  0  0  0  0
  -49.7768   58.5725   60.2409 C   0  0  0  0  0  0  0  0  0  0  0  0
  -49.5636   57.5635   59.1173 C   0  0  0  0  0  0  0  0  0  0  0  0
  -48.5696   56.4654   59.4608 C   0  0  0  0  0  0  0  0  0  0  0  0
  -47.5707   56.1249   58.3652 C   0  0  0  0  0  0  0  0  0  0  0  0
  -47.8588   56.8335   57.0774 C   0  0  0  0  0  0  0  0  0  0  0  0
  -40.4130   59.5322   64.5555 O   0  0  0  0  0  0  0  0  0  0  0  0
  -39.6739   60.5866   63.9005 C   0  0  0  0  0  0  0  0  0  0  0  0
  -38.4862   60.0441   63.1341 C   0  0  0  0  0  0  0  0  0  0  0  0
  -38.0398   60.9812   62.1446 O   0  0  0  0  0  0  0  0  0  0  0  0
  -37.7331   61.7911   62.5815 H   0  0  0  0  0  0  0  0  0  0  0  0
  -37.3315   59.6779   64.0368 C   0  0  0  0  0  0  0  0  0  0  0  0
  -36.5391   60.8363   64.3940 O   0  0  0  0  0  0  0  0  0  0  0  0
  -36.5801   61.8253   65.6572 P   0  0  0  0  0  0  0  0  0  0  0  0
  -37.5370   61.2374   66.6931 O   0  0  0  0  0  0  0  0  0  0  0  0
  -37.1098   63.1345   65.2169 O   0  0  0  0  0  0  0  0  0  0  0  0
  -37.9851   63.0114   64.8176 H   0  0  0  0  0  0  0  0  0  0  0  0
  -35.0936   61.9894   66.3417 O   0  0  0  0  0  0  0  0  0  0  0  0
  -34.3603   63.2345   66.5000 C   0  0  0  0  0  0  0  0  0  0  0  0
  -33.0587   63.1732   65.7397 C   0  0  0  0  0  0  0  0  0  0  0  0
  -33.0570   63.7827   64.3500 N   0  0  0  0  0  0  0  0  0  0  0  0
  -34.1182   64.8296   64.2358 C   0  0  0  0  0  0  0  0  0  0  0  0
  -33.3309   62.7031   63.3550 C   0  0  0  0  0  0  0  0  0  0  0  0
  -31.7244   64.4084   64.0510 C   0  0  0  0  0  0  0  0  0  0  0  0
 34 33  1  0  0  0
 34 35  1  0  0  0
 34 36  1  0  0  0
 34 37  1  0  0  0
 22 23  1  0  0  0
 22 25  1  0  0  0
 22 21  1  0  0  0
 23 24  1  0  0  0
 27 26  1  0  0  0
 27 28  2  0  0  0
 27 31  1  0  0  0
 27 29  1  0  0  0
 25 26  1  0  0  0
 32 33  1  0  0  0
 32 31  1  0  0  0
 29 30  1  0  0  0
 20 21  1  0  0  0
 20  2  1  0  0  0
  1  2  2  0  0  0
  2  3  1  0  0  0
  3  4  1  0  0  0
  4  5  1  0  0  0
  5  6  1  0  0  0
  6  7  1  0  0  0
  7  8  1  0  0  0
  8  9  1  0  0  0
  9 10  1  0  0  0
 10 11  2  0  0  0
 11 12  1  0  0  0
 12 13  1  0  0  0
 13 14  1  0  0  0
 14 15  1  0  0  0
 15 16  1  0  0  0
 16 17  1  0  0  0
 17 18  1  0  0  0
 18 19  1  0  0  0
M  CHG 1  28  -1
M  END
> <minimizedAffinity>
-7.71205

> <CNNscore>
0.7061257958

> <CNNaffinity>
6.2967910767

> <CNN_VS>
4.4463267326

> <CNNaffinity_variance>
0.2929268777

$$$$
/media/chris/experiments/cd1a-new-docking/inputs/ligands/4x6e_ligand.pdb


 37 36  0  0  0  0  0  0  0  0999 V2000
  -41.8084   55.3263   64.6372 O   0  0  0  0  0  0  0  0  0  0  0  0
  -41.9312   56.5233   64.5552 C   0  0  0  0  0  0  0  0  0  0  0  0
  -42.6062   57.3966   65.5678 C   0  0  0  0  0  0  0  0  0  0  0  0
  -44.1024   57.1320   65.6853 C   0  0  0  0  0  0  0  0  0  0  0  0
  -44.8564   58.1613   66.5098 C   0  0  0  0  0  0  0  0  0  0  0  0
  -45.0500   59.4858   65.7927 C   0  0  0  0  0  0  0  0  0  0  0  0
  -46.4884   59.7232   65.3659 C   0  0  0  0  0  0  0  0  0  0  0  0
  -47.4517   59.6372   66.5288 C   0  0  0  0  0  0  0  0  0  0  0  0
  -48.9004   59.9044   66.1743 C   0  0  0  0  0  0  0  0  0  0  0  0
  -49.6061   58.7367   65.5993 C   0  0  0  0  0  0  0  0  0  0  0  0
  -50.4021   58.7509   64.5501 C   0  0  0  0  0  0  0  0  0  0  0  0
  -50.7380   59.9237   63.6873 C   0  0  0  0  0  0  0  0  0  0  0  0
  -50.8999   59.4784   62.2329 C   0  0  0  0  0  0  0  0  0  0  0  0
  -50.9031   57.9734   62.0084 C   0  0  0  0  0  0  0  0  0  0  0  0
  -50.7320   57.5380   60.5580 C   0  0  0  0  0  0  0  0  0  0  0  0
  -49.5092   58.1466   59.8794 C   0  0  0  0  0  0  0  0  0  0  0  0
  -49.0227   57.3588   58.6734 C   0  0  0  0  0  0  0  0  0  0  0  0
  -48.0329   56.2446   58.9792 C   0  0  0  0  0  0  0  0  0  0  0  0
  -47.1614   55.9062   57.8090 C   0  0  0  0  0  0  0  0  0  0  0  0
  -41.4658   57.2586   63.5410 O   0  0  0  0  0  0  0  0  0  0  0  0
  -40.0332   57.3714   63.3921 C   0  0  0  0  0  0  0  0  0  0  0  0
  -39.5687   58.8064   63.5239 C   0  0  0  0  0  0  0  0  0  0  0  0
  -39.6834   59.2628   64.8785 O   0  0  0  0  0  0  0  0  0  0  0  0
  -39.1006   58.7362   65.4475 H   0  0  0  0  0  0  0  0  0  0  0  0
  -38.1492   59.0029   63.0457 C   0  0  0  0  0  0  0  0  0  0  0  0
  -37.8821   60.3851   62.7058 O   0  0  0  0  0  0  0  0  0  0  0  0
  -37.1382   61.5675   63.4960 P   0  0  0  0  0  0  0  0  0  0  0  0
  -37.7810   61.6978   64.8759 O   0  0  0  0  0  0  0  0  0  0  0  0
  -37.3451   62.8333   62.7590 O   0  0  0  0  0  0  0  0  0  0  0  0
  -38.2959   62.9983   62.6602 H   0  0  0  0  0  0  0  0  0  0  0  0
  -35.5357   61.2495   63.6857 O   0  0  0  0  0  0  0  0  0  0  0  0
  -34.7228   61.6192   64.8326 C   0  0  0  0  0  0  0  0  0  0  0  0
  -33.6890   62.6420   64.4311 C   0  0  0  0  0  0  0  0  0  0  0  0
  -33.8420   64.0292   65.0268 N   0  0  0  0  0  0  0  0  0  0  0  0
  -34.0815   65.0383   63.9500 C   0  0  0  0  0  0  0  0  0  0  0  0
  -32.5829   64.3798   65.7495 C   0  0  0  0  0  0  0  0  0  0  0  0
  -34.9946   64.0647   65.9896 C   0  0  0  0  0  0  0  0  0  0  0  0
 34 33  1  0  0  0
 34 35  1  0  0  0
 34 36  1  0  0  0
 34 37  1  0  0  0
 22 23  1  0  0  0
 22 25  1  0  0  0
 22 21  1  0  0  0
 23 24  1  0  0  0
 27 26  1  0  0  0
 27 28  2  0  0  0
 27 31  1  0  0  0
 27 29  1  0  0  0
 25 26  1  0  0  0
 32 33  1  0  0  0
 32 31  1  0  0  0
 29 30  1  0  0  0
 20 21  1  0  0  0
 20  2  1  0  0  0
  1  2  2  0  0  0
  2  3  1  0  0  0
  3  4  1  0  0  0
  4  5  1  0  0  0
  5  6  1  0  0  0
  6  7  1  0  0  0
  7  8  1  0  0  0
  8  9  1  0  0  0
  9 10  1  0  0  0
 10 11  2  0  0  0
 11 12  1  0  0  0
 12 13  1  0  0  0
 13 14  1  0  0  0
 14 15  1  0  0  0
 15 16  1  0  0  0
 16 17  1  0  0  0
 17 18  1  0  0  0
 18 19  1  0  0  0
M  CHG 1  28  -1
M  END
> <minimizedAffinity>
-8.00287

> <CNNscore>
0.6919000149

> <CNNaffinity>
6.4247589111

> <CNN_VS>
4.4452905655

> <CNNaffinity_variance>
0.1571070403

$$$$
/media/chris/experiments/cd1a-new-docking/inputs/ligands/4x6e_ligand.pdb


 37 36  0  0  0  0  0  0  0  0999 V2000
  -41.2338   60.9296   66.1689 O   0  0  0  0  0  0  0  0  0  0  0  0
  -42.1518   60.2029   65.8790 C   0  0  0  0  0  0  0  0  0  0  0  0
  -42.9158   59.3459   66.8410 C   0  0  0  0  0  0  0  0  0  0  0  0
  -43.2993   57.9896   66.2614 C   0  0  0  0  0  0  0  0  0  0  0  0
  -44.7886   57.6928   66.2977 C   0  0  0  0  0  0  0  0  0  0  0  0
  -45.6524   58.9408   66.3487 C   0  0  0  0  0  0  0  0  0  0  0  0
  -46.2378   59.3113   64.9969 C   0  0  0  0  0  0  0  0  0  0  0  0
  -47.3581   60.3204   65.1158 C   0  0  0  0  0  0  0  0  0  0  0  0
  -48.4727   59.9231   66.0622 C   0  0  0  0  0  0  0  0  0  0  0  0
  -49.2172   58.7137   65.6436 C   0  0  0  0  0  0  0  0  0  0  0  0
  -50.2911   58.6890   64.8816 C   0  0  0  0  0  0  0  0  0  0  0  0
  -50.9705   59.8552   64.2404 C   0  0  0  0  0  0  0  0  0  0  0  0
  -51.1743   59.5907   62.7478 C   0  0  0  0  0  0  0  0  0  0  0  0
  -50.6973   58.2322   62.2553 C   0  0  0  0  0  0  0  0  0  0  0  0
  -50.2857   58.1866   60.7887 C   0  0  0  0  0  0  0  0  0  0  0  0
  -49.5940   56.8871   60.3902 C   0  0  0  0  0  0  0  0  0  0  0  0
  -48.8173   56.9818   59.0864 C   0  0  0  0  0  0  0  0  0  0  0  0
  -47.6686   55.9952   58.9394 C   0  0  0  0  0  0  0  0  0  0  0  0
  -47.1977   55.8606   57.5240 C   0  0  0  0  0  0  0  0  0  0  0  0
  -42.6373   60.0628   64.6419 O   0  0  0  0  0  0  0  0  0  0  0  0
  -42.1951   60.9988   63.6342 C   0  0  0  0  0  0  0  0  0  0  0  0
  -43.0474   60.9198   62.3852 C   0  0  0  0  0  0  0  0  0  0  0  0
  -43.7383   62.1549   62.1538 O   0  0  0  0  0  0  0  0  0  0  0  0
  -43.0930   62.8619   61.9970 H   0  0  0  0  0  0  0  0  0  0  0  0
  -42.2456   60.5547   61.1580 C   0  0  0  0  0  0  0  0  0  0  0  0
  -42.2622   59.1281   60.9089 O   0  0  0  0  0  0  0  0  0  0  0  0
  -41.4734   57.9044   61.5842 P   0  0  0  0  0  0  0  0  0  0  0  0
  -41.5351   56.7122   60.6307 O   0  0  0  0  0  0  0  0  0  0  0  0
  -42.1580   57.5363   62.8428 O   0  0  0  0  0  0  0  0  0  0  0  0
  -43.0843   57.3180   62.6551 H   0  0  0  0  0  0  0  0  0  0  0  0
  -39.8964   58.2828   61.8584 O   0  0  0  0  0  0  0  0  0  0  0  0
  -38.9747   57.5384   62.7005 C   0  0  0  0  0  0  0  0  0  0  0  0
  -38.9331   58.1375   64.0845 C   0  0  0  0  0  0  0  0  0  0  0  0
  -37.6770   58.9054   64.4525 N   0  0  0  0  0  0  0  0  0  0  0  0
  -36.5519   57.9632   64.7380 C   0  0  0  0  0  0  0  0  0  0  0  0
  -37.9542   59.7158   65.6759 C   0  0  0  0  0  0  0  0  0  0  0  0
  -37.2713   59.8195   63.3315 C   0  0  0  0  0  0  0  0  0  0  0  0
 34 33  1  0  0  0
 34 35  1  0  0  0
 34 36  1  0  0  0
 34 37  1  0  0  0
 22 23  1  0  0  0
 22 25  1  0  0  0
 22 21  1  0  0  0
 23 24  1  0  0  0
 27 26  1  0  0  0
 27 28  2  0  0  0
 27 31  1  0  0  0
 27 29  1  0  0  0
 25 26  1  0  0  0
 32 33  1  0  0  0
 32 31  1  0  0  0
 29 30  1  0  0  0
 20 21  1  0  0  0
 20  2  1  0  0  0
  1  2  2  0  0  0
  2  3  1  0  0  0
  3  4  1  0  0  0
  4  5  1  0  0  0
  5  6  1  0  0  0
  6  7  1  0  0  0
  7  8  1  0  0  0
  8  9  1  0  0  0
  9 10  1  0  0  0
 10 11  2  0  0  0
 11 12  1  0  0  0
 12 13  1  0  0  0
 13 14  1  0  0  0
 14 15  1  0  0  0
 15 16  1  0  0  0
 16 17  1  0  0  0
 17 18  1  0  0  0
 18 19  1  0  0  0
M  CHG 1  28  -1
M  END
> <minimizedAffinity>
-7.72206

> <CNNscore>
0.6791678667

> <CNNaffinity>
6.9690999985

> <CNN_VS>
4.7331886292

> <CNNaffinity_variance>
0.4151644707

$$$$
/media/chris/experiments/cd1a-new-docking/inputs/ligands/4x6e_ligand.pdb


 37 36  0  0  0  0  0  0  0  0999 V2000
  -42.3930   55.6068   64.8617 O   0  0  0  0  0  0  0  0  0  0  0  0
  -42.3530   56.7226   65.3179 C   0  0  0  0  0  0  0  0  0  0  0  0
  -43.3727   57.3193   66.2387 C   0  0  0  0  0  0  0  0  0  0  0  0
  -44.6981   57.6218   65.5501 C   0  0  0  0  0  0  0  0  0  0  0  0
  -44.5826   58.5466   64.3506 C   0  0  0  0  0  0  0  0  0  0  0  0
  -45.9145   59.1187   63.8980 C   0  0  0  0  0  0  0  0  0  0  0  0
  -47.0485   58.8116   64.8609 C   0  0  0  0  0  0  0  0  0  0  0  0
  -47.6582   60.0662   65.4456 C   0  0  0  0  0  0  0  0  0  0  0  0
  -48.9681   59.8543   66.1771 C   0  0  0  0  0  0  0  0  0  0  0  0
  -49.7816   58.7370   65.6462 C   0  0  0  0  0  0  0  0  0  0  0  0
  -50.5547   58.7783   64.5807 C   0  0  0  0  0  0  0  0  0  0  0  0
  -50.7532   59.9330   63.6533 C   0  0  0  0  0  0  0  0  0  0  0  0
  -50.5557   59.4847   62.2043 C   0  0  0  0  0  0  0  0  0  0  0  0
  -50.8485   58.0168   61.9303 C   0  0  0  0  0  0  0  0  0  0  0  0
  -50.9023   57.6349   60.4559 C   0  0  0  0  0  0  0  0  0  0  0  0
  -49.7085   58.1392   59.6520 C   0  0  0  0  0  0  0  0  0  0  0  0
  -48.7409   57.0416   59.2386 C   0  0  0  0  0  0  0  0  0  0  0  0
  -48.3364   57.0482   57.7720 C   0  0  0  0  0  0  0  0  0  0  0  0
  -47.5173   55.8534   57.3913 C   0  0  0  0  0  0  0  0  0  0  0  0
  -41.3734   57.5986   65.0758 O   0  0  0  0  0  0  0  0  0  0  0  0
  -41.0942   58.5936   66.0853 C   0  0  0  0  0  0  0  0  0  0  0  0
  -40.4095   59.8095   65.4977 C   0  0  0  0  0  0  0  0  0  0  0  0
  -41.2761   60.9517   65.5235 O   0  0  0  0  0  0  0  0  0  0  0  0
  -41.4864   61.1773   66.4431 H   0  0  0  0  0  0  0  0  0  0  0  0
  -39.1158   60.1440   66.2026 C   0  0  0  0  0  0  0  0  0  0  0  0
  -38.5201   61.3588   65.6862 O   0  0  0  0  0  0  0  0  0  0  0  0
  -37.1353   61.6449   64.9271 P   0  0  0  0  0  0  0  0  0  0  0  0
  -36.0044   61.0267   65.7477 O   0  0  0  0  0  0  0  0  0  0  0  0
  -36.9241   63.1075   64.8617 O   0  0  0  0  0  0  0  0  0  0  0  0
  -36.9347   63.4762   65.7589 H   0  0  0  0  0  0  0  0  0  0  0  0
  -37.1244   60.9786   63.4234 O   0  0  0  0  0  0  0  0  0  0  0  0
  -38.2954   60.5996   62.6500 C   0  0  0  0  0  0  0  0  0  0  0  0
  -38.1749   59.1681   62.1892 C   0  0  0  0  0  0  0  0  0  0  0  0
  -38.9840   58.7804   60.9654 N   0  0  0  0  0  0  0  0  0  0  0  0
  -38.0864   58.5737   59.7878 C   0  0  0  0  0  0  0  0  0  0  0  0
  -39.9424   59.8837   60.6576 C   0  0  0  0  0  0  0  0  0  0  0  0
  -39.7494   57.5131   61.2200 C   0  0  0  0  0  0  0  0  0  0  0  0
 34 33  1  0  0  0
 34 35  1  0  0  0
 34 36  1  0  0  0
 34 37  1  0  0  0
 22 23  1  0  0  0
 22 25  1  0  0  0
 22 21  1  0  0  0
 23 24  1  0  0  0
 27 26  1  0  0  0
 27 28  2  0  0  0
 27 31  1  0  0  0
 27 29  1  0  0  0
 25 26  1  0  0  0
 32 33  1  0  0  0
 32 31  1  0  0  0
 29 30  1  0  0  0
 20 21  1  0  0  0
 20  2  1  0  0  0
  1  2  2  0  0  0
  2  3  1  0  0  0
  3  4  1  0  0  0
  4  5  1  0  0  0
  5  6  1  0  0  0
  6  7  1  0  0  0
  7  8  1  0  0  0
  8  9  1  0  0  0
  9 10  1  0  0  0
 10 11  2  0  0  0
 11 12  1  0  0  0
 12 13  1  0  0  0
 13 14  1  0  0  0
 14 15  1  0  0  0
 15 16  1  0  0  0
 16 17  1  0  0  0
 17 18  1  0  0  0
 18 19  1  0  0  0
M  CHG 1  28  -1
M  END
> <minimizedAffinity>
-8.18996

> <CNNscore>
0.6466539502

> <CNNaffinity>
6.8294386864

> <CNN_VS>
4.4162836075

> <CNNaffinity_variance>
0.1108600721

$$$$
/media/chris/experiments/cd1a-new-docking/inputs/ligands/4x6e_ligand.pdb


 37 36  0  0  0  0  0  0  0  0999 V2000
  -40.5329   58.8996   65.4395 O   0  0  0  0  0  0  0  0  0  0  0  0
  -40.6221   59.9985   65.9286 C   0  0  0  0  0  0  0  0  0  0  0  0
  -41.8303   60.5395   66.6296 C   0  0  0  0  0  0  0  0  0  0  0  0
  -42.7127   59.4513   67.2295 C   0  0  0  0  0  0  0  0  0  0  0  0
  -44.0197   59.2272   66.4886 C   0  0  0  0  0  0  0  0  0  0  0  0
  -43.9941   59.7246   65.0540 C   0  0  0  0  0  0  0  0  0  0  0  0
  -45.3456   60.2290   64.5781 C   0  0  0  0  0  0  0  0  0  0  0  0
  -46.4922   59.5827   65.3234 C   0  0  0  0  0  0  0  0  0  0  0  0
  -47.7941   60.3567   65.2802 C   0  0  0  0  0  0  0  0  0  0  0  0
  -48.2280   60.7317   63.9152 C   0  0  0  0  0  0  0  0  0  0  0  0
  -49.2293   60.1988   63.2458 C   0  0  0  0  0  0  0  0  0  0  0  0
  -50.1689   59.1378   63.7192 C   0  0  0  0  0  0  0  0  0  0  0  0
  -50.6842   58.3227   62.5319 C   0  0  0  0  0  0  0  0  0  0  0  0
  -50.1270   58.7247   61.1742 C   0  0  0  0  0  0  0  0  0  0  0  0
  -50.4022   57.7370   60.0467 C   0  0  0  0  0  0  0  0  0  0  0  0
  -49.2328   57.5733   59.0814 C   0  0  0  0  0  0  0  0  0  0  0  0
  -48.4004   56.3262   59.3338 C   0  0  0  0  0  0  0  0  0  0  0  0
  -47.3621   56.0093   58.2680 C   0  0  0  0  0  0  0  0  0  0  0  0
  -47.5449   56.8195   57.0216 C   0  0  0  0  0  0  0  0  0  0  0  0
  -39.6386   60.9032   65.9284 O   0  0  0  0  0  0  0  0  0  0  0  0
  -38.2992   60.4428   66.2130 C   0  0  0  0  0  0  0  0  0  0  0  0
  -37.2612   61.2333   65.4449 C   0  0  0  0  0  0  0  0  0  0  0  0
  -37.2995   62.6208   65.8053 O   0  0  0  0  0  0  0  0  0  0  0  0
  -37.0737   62.7174   66.7437 H   0  0  0  0  0  0  0  0  0  0  0  0
  -35.8617   60.7006   65.6444 C   0  0  0  0  0  0  0  0  0  0  0  0
  -35.3386   60.0959   64.4369 O   0  0  0  0  0  0  0  0  0  0  0  0
  -35.6393   58.6959   63.7121 P   0  0  0  0  0  0  0  0  0  0  0  0
  -35.1395   57.5721   64.6185 O   0  0  0  0  0  0  0  0  0  0  0  0
  -34.8825   58.6478   62.4420 O   0  0  0  0  0  0  0  0  0  0  0  0
  -33.9379   58.7726   62.6234 H   0  0  0  0  0  0  0  0  0  0  0  0
  -37.2494   58.4880   63.4487 O   0  0  0  0  0  0  0  0  0  0  0  0
  -37.8457   57.5675   62.4948 C   0  0  0  0  0  0  0  0  0  0  0  0
  -39.3488   57.5848   62.6231 C   0  0  0  0  0  0  0  0  0  0  0  0
  -40.1125   58.3219   61.5386 N   0  0  0  0  0  0  0  0  0  0  0  0
  -39.5894   59.7138   61.3832 C   0  0  0  0  0  0  0  0  0  0  0  0
  -41.5529   58.3852   61.9280 C   0  0  0  0  0  0  0  0  0  0  0  0
  -39.9834   57.6059   60.2243 C   0  0  0  0  0  0  0  0  0  0  0  0
 34 33  1  0  0  0
 34 35  1  0  0  0
 34 36  1  0  0  0
 34 37  1  0  0  0
 22 23  1  0  0  0
 22 25  1  0  0  0
 22 21  1  0  0  0
 23 24  1  0  0  0
 27 26  1  0  0  0
 27 28  2  0  0  0
 27 31  1  0  0  0
 27 29  1  0  0  0
 25 26  1  0  0  0
 32 33  1  0  0  0
 32 31  1  0  0  0
 29 30  1  0  0  0
 20 21  1  0  0  0
 20  2  1  0  0  0
  1  2  2  0  0  0
  2  3  1  0  0  0
  3  4  1  0  0  0
  4  5  1  0  0  0
  5  6  1  0  0  0
  6  7  1  0  0  0
  7  8  1  0  0  0
  8  9  1  0  0  0
  9 10  1  0  0  0
 10 11  2  0  0  0
 11 12  1  0  0  0
 12 13  1  0  0  0
 13 14  1  0  0  0
 14 15  1  0  0  0
 15 16  1  0  0  0
 16 17  1  0  0  0
 17 18  1  0  0  0
 18 19  1  0  0  0
M  CHG 1  28  -1
M  END
> <minimizedAffinity>
-7.96213

> <CNNscore>
0.6343641281

> <CNNaffinity>
6.8700828552

> <CNN_VS>
4.3581342697

> <CNNaffinity_variance>
0.3171438575

$$$$
/media/chris/experiments/cd1a-new-docking/inputs/ligands/4x6e_ligand.pdb


 37 36  0  0  0  0  0  0  0  0999 V2000
  -40.5047   60.9942   66.3113 O   0  0  0  0  0  0  0  0  0  0  0  0
  -40.5399   59.8887   65.8303 C   0  0  0  0  0  0  0  0  0  0  0  0
  -41.6517   58.9009   66.0090 C   0  0  0  0  0  0  0  0  0  0  0  0
  -42.8529   59.4776   66.7486 C   0  0  0  0  0  0  0  0  0  0  0  0
  -44.1575   59.4058   65.9738 C   0  0  0  0  0  0  0  0  0  0  0  0
  -45.3793   59.2449   66.8612 C   0  0  0  0  0  0  0  0  0  0  0  0
  -46.6212   59.9017   66.2833 C   0  0  0  0  0  0  0  0  0  0  0  0
  -46.7066   59.7421   64.7817 C   0  0  0  0  0  0  0  0  0  0  0  0
  -48.0710   60.0302   64.1892 C   0  0  0  0  0  0  0  0  0  0  0  0
  -49.2019   59.5683   65.0258 C   0  0  0  0  0  0  0  0  0  0  0  0
  -50.4530   59.4381   64.6355 C   0  0  0  0  0  0  0  0  0  0  0  0
  -51.0025   59.6837   63.2679 C   0  0  0  0  0  0  0  0  0  0  0  0
  -50.9405   58.4010   62.4371 C   0  0  0  0  0  0  0  0  0  0  0  0
  -49.8677   58.3742   61.3582 C   0  0  0  0  0  0  0  0  0  0  0  0
  -50.1949   57.5113   60.1455 C   0  0  0  0  0  0  0  0  0  0  0  0
  -49.0368   57.3784   59.1620 C   0  0  0  0  0  0  0  0  0  0  0  0
  -48.2307   56.1008   59.3343 C   0  0  0  0  0  0  0  0  0  0  0  0
  -47.1318   55.8802   58.3056 C   0  0  0  0  0  0  0  0  0  0  0  0
  -47.5173   56.3484   56.9361 C   0  0  0  0  0  0  0  0  0  0  0  0
  -39.5850   59.3798   65.0462 O   0  0  0  0  0  0  0  0  0  0  0  0
  -39.0542   58.0802   65.3873 C   0  0  0  0  0  0  0  0  0  0  0  0
  -37.7050   57.8407   64.7434 C   0  0  0  0  0  0  0  0  0  0  0  0
  -37.8389   57.6217   63.3325 O   0  0  0  0  0  0  0  0  0  0  0  0
  -38.2007   58.4187   62.9145 H   0  0  0  0  0  0  0  0  0  0  0  0
  -36.7367   58.9746   64.9864 C   0  0  0  0  0  0  0  0  0  0  0  0
  -36.6950   59.8955   63.8695 O   0  0  0  0  0  0  0  0  0  0  0  0
  -37.2264   61.3991   63.6888 P   0  0  0  0  0  0  0  0  0  0  0  0
  -36.0158   62.3177   63.5310 O   0  0  0  0  0  0  0  0  0  0  0  0
  -37.9596   61.7927   64.9119 O   0  0  0  0  0  0  0  0  0  0  0  0
  -37.3776   61.6984   65.6822 H   0  0  0  0  0  0  0  0  0  0  0  0
  -38.1794   61.5446   62.3562 O   0  0  0  0  0  0  0  0  0  0  0  0
  -38.6983   60.4484   61.5550 C   0  0  0  0  0  0  0  0  0  0  0  0
  -40.1023   60.1053   61.9877 C   0  0  0  0  0  0  0  0  0  0  0  0
  -40.7569   58.9273   61.2902 N   0  0  0  0  0  0  0  0  0  0  0  0
  -39.7534   58.1786   60.4732 C   0  0  0  0  0  0  0  0  0  0  0  0
  -41.8301   59.4427   60.3884 C   0  0  0  0  0  0  0  0  0  0  0  0
  -41.3605   57.9889   62.2961 C   0  0  0  0  0  0  0  0  0  0  0  0
 34 33  1  0  0  0
 34 35  1  0  0  0
 34 36  1  0  0  0
 34 37  1  0  0  0
 22 23  1  0  0  0
 22 25  1  0  0  0
 22 21  1  0  0  0
 23 24  1  0  0  0
 27 26  1  0  0  0
 27 28  2  0  0  0
 27 31  1  0  0  0
 27 29  1  0  0  0
 25 26  1  0  0  0
 32 33  1  0  0  0
 32 31  1  0  0  0
 29 30  1  0  0  0
 20 21  1  0  0  0
 20  2  1  0  0  0
  1  2  2  0  0  0
  2  3  1  0  0  0
  3  4  1  0  0  0
  4  5  1  0  0  0
  5  6  1  0  0  0
  6  7  1  0  0  0
  7  8  1  0  0  0
  8  9  1  0  0  0
  9 10  1  0  0  0
 10 11  2  0  0  0
 11 12  1  0  0  0
 12 13  1  0  0  0
 13 14  1  0  0  0
 14 15  1  0  0  0
 15 16  1  0  0  0
 16 17  1  0  0  0
 17 18  1  0  0  0
 18 19  1  0  0  0
M  CHG 1  28  -1
M  END
> <minimizedAffinity>
-7.82229

> <CNNscore>
0.6238062382

> <CNNaffinity>
6.9153800011

> <CNN_VS>
4.3138570786

> <CNNaffinity_variance>
0.0927602127

$$$$
/media/chris/experiments/cd1a-new-docking/inputs/ligands/4x6e_ligand.pdb


 37 36  0  0  0  0  0  0  0  0999 V2000
  -41.5229   61.0503   66.2395 O   0  0  0  0  0  0  0  0  0  0  0  0
  -41.7992   59.9282   66.5849 C   0  0  0  0  0  0  0  0  0  0  0  0
  -43.1282   59.4880   67.1176 C   0  0  0  0  0  0  0  0  0  0  0  0
  -43.6747   58.2500   66.4166 C   0  0  0  0  0  0  0  0  0  0  0  0
  -45.1683   58.0388   66.5953 C   0  0  0  0  0  0  0  0  0  0  0  0
  -45.9235   59.3135   66.9283 C   0  0  0  0  0  0  0  0  0  0  0  0
  -47.2869   59.3850   66.2623 C   0  0  0  0  0  0  0  0  0  0  0  0
  -47.2546   58.8796   64.8372 C   0  0  0  0  0  0  0  0  0  0  0  0
  -48.5422   58.2378   64.3618 C   0  0  0  0  0  0  0  0  0  0  0  0
  -49.7615   59.0029   64.7084 C   0  0  0  0  0  0  0  0  0  0  0  0
  -50.8128   59.1788   63.9348 C   0  0  0  0  0  0  0  0  0  0  0  0
  -51.0304   58.6204   62.5661 C   0  0  0  0  0  0  0  0  0  0  0  0
  -50.3153   59.4835   61.5253 C   0  0  0  0  0  0  0  0  0  0  0  0
  -49.8830   58.7558   60.2608 C   0  0  0  0  0  0  0  0  0  0  0  0
  -49.6277   57.2631   60.4317 C   0  0  0  0  0  0  0  0  0  0  0  0
  -48.6765   56.6845   59.3893 C   0  0  0  0  0  0  0  0  0  0  0  0
  -48.5734   57.5205   58.1235 C   0  0  0  0  0  0  0  0  0  0  0  0
  -47.5779   57.0166   57.0893 C   0  0  0  0  0  0  0  0  0  0  0  0
  -47.1062   55.6229   57.3698 C   0  0  0  0  0  0  0  0  0  0  0  0
  -40.9528   58.8956   66.5310 O   0  0  0  0  0  0  0  0  0  0  0  0
  -39.7448   59.0540   65.7547 C   0  0  0  0  0  0  0  0  0  0  0  0
  -39.8564   58.3806   64.4032 C   0  0  0  0  0  0  0  0  0  0  0  0
  -40.6146   57.1667   64.4933 O   0  0  0  0  0  0  0  0  0  0  0  0
  -41.5216   57.3718   64.7693 H   0  0  0  0  0  0  0  0  0  0  0  0
  -40.4699   59.2799   63.3558 C   0  0  0  0  0  0  0  0  0  0  0  0
  -40.3020   58.7440   62.0209 O   0  0  0  0  0  0  0  0  0  0  0  0
  -39.1743   58.9675   60.9010 P   0  0  0  0  0  0  0  0  0  0  0  0
  -39.4566   60.2938   60.1972 O   0  0  0  0  0  0  0  0  0  0  0  0
  -39.2715   57.8769   59.9064 O   0  0  0  0  0  0  0  0  0  0  0  0
  -40.1655   57.8611   59.5301 H   0  0  0  0  0  0  0  0  0  0  0  0
  -37.6707   59.0293   61.5649 O   0  0  0  0  0  0  0  0  0  0  0  0
  -37.0030   57.9454   62.2664 C   0  0  0  0  0  0  0  0  0  0  0  0
  -35.6047   58.3585   62.6541 C   0  0  0  0  0  0  0  0  0  0  0  0
  -35.2757   58.3275   64.1352 N   0  0  0  0  0  0  0  0  0  0  0  0
  -35.8239   59.5387   64.8190 C   0  0  0  0  0  0  0  0  0  0  0  0
  -33.7908   58.3104   64.2940 C   0  0  0  0  0  0  0  0  0  0  0  0
  -35.8591   57.1018   64.7786 C   0  0  0  0  0  0  0  0  0  0  0  0
 34 33  1  0  0  0
 34 35  1  0  0  0
 34 36  1  0  0  0
 34 37  1  0  0  0
 22 23  1  0  0  0
 22 25  1  0  0  0
 22 21  1  0  0  0
 23 24  1  0  0  0
 27 26  1  0  0  0
 27 28  2  0  0  0
 27 31  1  0  0  0
 27 29  1  0  0  0
 25 26  1  0  0  0
 32 33  1  0  0  0
 32 31  1  0  0  0
 29 30  1  0  0  0
 20 21  1  0  0  0
 20  2  1  0  0  0
  1  2  2  0  0  0
  2  3  1  0  0  0
  3  4  1  0  0  0
  4  5  1  0  0  0
  5  6  1  0  0  0
  6  7  1  0  0  0
  7  8  1  0  0  0
  8  9  1  0  0  0
  9 10  1  0  0  0
 10 11  2  0  0  0
 11 12  1  0  0  0
 12 13  1  0  0  0
 13 14  1  0  0  0
 14 15  1  0  0  0
 15 16  1  0  0  0
 16 17  1  0  0  0
 17 18  1  0  0  0
 18 19  1  0  0  0
M  CHG 1  28  -1
M  END
> <minimizedAffinity>
-7.65440

> <CNNscore>
0.6101838946

> <CNNaffinity>
6.7518210411

> <CNN_VS>
4.1198525429

> <CNNaffinity_variance>
0.2338393033

$$$$
