/media/chris/experiments/cd1a-new-docking/inputs/ligands/4x6e_ligand.pdb


 37 36  0  0  0  0  0  0  0  0999 V2000
  -42.3588   55.7992   64.7053 O   0  0  0  0  0  0  0  0  0  0  0  0
  -42.3664   56.8278   65.3351 C   0  0  0  0  0  0  0  0  0  0  0  0
  -43.4070   57.2224   66.3377 C   0  0  0  0  0  0  0  0  0  0  0  0
  -44.8215   57.2083   65.7707 C   0  0  0  0  0  0  0  0  0  0  0  0
  -45.9122   57.4216   66.8064 C   0  0  0  0  0  0  0  0  0  0  0  0
  -46.1940   58.8858   67.0945 C   0  0  0  0  0  0  0  0  0  0  0  0
  -46.0208   59.7733   65.8739 C   0  0  0  0  0  0  0  0  0  0  0  0
  -47.3394   60.0862   65.2024 C   0  0  0  0  0  0  0  0  0  0  0  0
  -48.5568   59.9325   66.0914 C   0  0  0  0  0  0  0  0  0  0  0  0
  -49.4781   58.8522   65.6711 C   0  0  0  0  0  0  0  0  0  0  0  0
  -50.2869   58.8830   64.6321 C   0  0  0  0  0  0  0  0  0  0  0  0
  -50.4282   59.9822   63.6300 C   0  0  0  0  0  0  0  0  0  0  0  0
  -50.3763   59.4117   62.2117 C   0  0  0  0  0  0  0  0  0  0  0  0
  -51.1269   58.1040   62.0070 C   0  0  0  0  0  0  0  0  0  0  0  0
  -50.8561   57.4068   60.6793 C   0  0  0  0  0  0  0  0  0  0  0  0
  -49.3733   57.3011   60.3381 C   0  0  0  0  0  0  0  0  0  0  0  0
  -49.0593   57.5851   58.8778 C   0  0  0  0  0  0  0  0  0  0  0  0
  -47.9703   56.7174   58.2649 C   0  0  0  0  0  0  0  0  0  0  0  0
  -47.7267   57.0276   56.8199 C   0  0  0  0  0  0  0  0  0  0  0  0
  -41.4282   57.7745   65.2390 O   0  0  0  0  0  0  0  0  0  0  0  0
  -41.4694   58.8630   66.1877 C   0  0  0  0  0  0  0  0  0  0  0  0
  -40.7125   60.0734   65.6833 C   0  0  0  0  0  0  0  0  0  0  0  0
  -40.9858   61.2259   66.4916 O   0  0  0  0  0  0  0  0  0  0  0  0
  -40.6726   61.0683   67.3960 H   0  0  0  0  0  0  0  0  0  0  0  0
  -39.2206   59.8422   65.6257 C   0  0  0  0  0  0  0  0  0  0  0  0
  -38.5101   61.0217   65.1769 O   0  0  0  0  0  0  0  0  0  0  0  0
  -37.5819   61.3024   63.8980 P   0  0  0  0  0  0  0  0  0  0  0  0
  -36.1220   61.1816   64.3319 O   0  0  0  0  0  0  0  0  0  0  0  0
  -37.8217   62.6861   63.4331 O   0  0  0  0  0  0  0  0  0  0  0  0
  -37.6459   63.3059   64.1583 H   0  0  0  0  0  0  0  0  0  0  0  0
  -37.8691   60.2172   62.6959 O   0  0  0  0  0  0  0  0  0  0  0  0
  -39.0013   60.2341   61.7845 C   0  0  0  0  0  0  0  0  0  0  0  0
  -40.0205   59.2022   62.2000 C   0  0  0  0  0  0  0  0  0  0  0  0
  -40.3030   58.0911   61.2059 N   0  0  0  0  0  0  0  0  0  0  0  0
  -40.4076   56.7749   61.9071 C   0  0  0  0  0  0  0  0  0  0  0  0
  -39.1783   58.0308   60.2251 C   0  0  0  0  0  0  0  0  0  0  0  0
  -41.5881   58.3538   60.4736 C   0  0  0  0  0  0  0  0  0  0  0  0
 34 33  1  0  0  0
 34 35  1  0  0  0
 34 36  1  0  0  0
 34 37  1  0  0  0
 22 23  1  0  0  0
 22 25  1  0  0  0
 22 21  1  0  0  0
 23 24  1  0  0  0
 27 26  1  0  0  0
 27 28  2  0  0  0
 27 31  1  0  0  0
 27 29  1  0  0  0
 25 26  1  0  0  0
 32 33  1  0  0  0
 32 31  1  0  0  0
 29 30  1  0  0  0
 20 21  1  0  0  0
 20  2  1  0  0  0
  1  2  2  0  0  0
  2  3  1  0  0  0
  3  4  1  0  0  0
  4  5  1  0  0  0
  5  6  1  0  0  0
  6  7  1  0  0  0
  7  8  1  0  0  0
  8  9  1  0  0  0
  9 10  1  0  0  0
 10 11  2  0  0  0
 11 12  1  0  0  0
 12 13  1  0  0  0
 13 14  1  0  0  0
 14 15  1  0  0  0
 15 16  1  0  0  0
 16 17  1  0  0  0
 17 18  1  0  0  0
 18 19  1  0  0  0
M  CHG 1  28  -1
M  END
> <minimizedAffinity>
-8.19557

> <CNNscore>
0.8769453764

> <CNNaffinity>
7.2033910751

> <CNN_VS>
6.3169803619

> <CNNaffinity_variance>
0.3568249345

$$$$
/media/chris/experiments/cd1a-new-docking/inputs/ligands/4x6e_ligand.pdb


 37 36  0  0  0  0  0  0  0  0999 V2000
  -41.1018   60.3837   64.9212 O   0  0  0  0  0  0  0  0  0  0  0  0
  -42.2837   60.2238   65.1005 C   0  0  0  0  0  0  0  0  0  0  0  0
  -42.9160   59.8111   66.3941 C   0  0  0  0  0  0  0  0  0  0  0  0
  -43.2988   58.3364   66.4307 C   0  0  0  0  0  0  0  0  0  0  0  0
  -44.7762   58.0682   66.2005 C   0  0  0  0  0  0  0  0  0  0  0  0
  -45.6777   59.1848   66.6972 C   0  0  0  0  0  0  0  0  0  0  0  0
  -46.4527   59.8613   65.5795 C   0  0  0  0  0  0  0  0  0  0  0  0
  -46.9142   58.8780   64.5270 C   0  0  0  0  0  0  0  0  0  0  0  0
  -48.2690   58.2535   64.7923 C   0  0  0  0  0  0  0  0  0  0  0  0
  -49.3545   59.2367   65.0094 C   0  0  0  0  0  0  0  0  0  0  0  0
  -50.1146   59.7719   64.0762 C   0  0  0  0  0  0  0  0  0  0  0  0
  -50.0837   59.4825   62.6107 C   0  0  0  0  0  0  0  0  0  0  0  0
  -51.0185   58.3166   62.2843 C   0  0  0  0  0  0  0  0  0  0  0  0
  -50.8629   57.7267   60.8903 C   0  0  0  0  0  0  0  0  0  0  0  0
  -49.6591   58.2351   60.1063 C   0  0  0  0  0  0  0  0  0  0  0  0
  -49.3181   57.3792   58.8909 C   0  0  0  0  0  0  0  0  0  0  0  0
  -48.2794   56.3047   59.1708 C   0  0  0  0  0  0  0  0  0  0  0  0
  -47.2712   56.0671   58.0564 C   0  0  0  0  0  0  0  0  0  0  0  0
  -47.4357   57.0205   56.9130 C   0  0  0  0  0  0  0  0  0  0  0  0
  -43.2173   60.4058   64.1618 O   0  0  0  0  0  0  0  0  0  0  0  0
  -43.2673   59.4625   63.0690 C   0  0  0  0  0  0  0  0  0  0  0  0
  -42.7867   60.0815   61.7735 C   0  0  0  0  0  0  0  0  0  0  0  0
  -42.0215   61.2685   62.0222 O   0  0  0  0  0  0  0  0  0  0  0  0
  -41.2242   61.0398   62.5251 H   0  0  0  0  0  0  0  0  0  0  0  0
  -41.9697   59.1221   60.9401 C   0  0  0  0  0  0  0  0  0  0  0  0
  -40.6922   58.8279   61.5555 O   0  0  0  0  0  0  0  0  0  0  0  0
  -40.1106   57.5077   62.2590 P   0  0  0  0  0  0  0  0  0  0  0  0
  -40.9366   56.3121   61.7873 O   0  0  0  0  0  0  0  0  0  0  0  0
  -40.2705   57.6416   63.7235 O   0  0  0  0  0  0  0  0  0  0  0  0
  -41.2058   57.7892   63.9345 H   0  0  0  0  0  0  0  0  0  0  0  0
  -38.5357   57.2556   61.8573 O   0  0  0  0  0  0  0  0  0  0  0  0
  -37.5562   58.2872   61.5586 C   0  0  0  0  0  0  0  0  0  0  0  0
  -36.3679   58.1601   62.4795 C   0  0  0  0  0  0  0  0  0  0  0  0
  -36.4851   58.8358   63.8331 N   0  0  0  0  0  0  0  0  0  0  0  0
  -37.4454   59.9797   63.7662 C   0  0  0  0  0  0  0  0  0  0  0  0
  -35.1403   59.3532   64.2263 C   0  0  0  0  0  0  0  0  0  0  0  0
  -36.9650   57.8597   64.8692 C   0  0  0  0  0  0  0  0  0  0  0  0
 34 33  1  0  0  0
 34 35  1  0  0  0
 34 36  1  0  0  0
 34 37  1  0  0  0
 22 23  1  0  0  0
 22 25  1  0  0  0
 22 21  1  0  0  0
 23 24  1  0  0  0
 27 26  1  0  0  0
 27 28  2  0  0  0
 27 31  1  0  0  0
 27 29  1  0  0  0
 25 26  1  0  0  0
 32 33  1  0  0  0
 32 31  1  0  0  0
 29 30  1  0  0  0
 20 21  1  0  0  0
 20  2  1  0  0  0
  1  2  2  0  0  0
  2  3  1  0  0  0
  3  4  1  0  0  0
  4  5  1  0  0  0
  5  6  1  0  0  0
  6  7  1  0  0  0
  7  8  1  0  0  0
  8  9  1  0  0  0
  9 10  1  0  0  0
 10 11  2  0  0  0
 11 12  1  0  0  0
 12 13  1  0  0  0
 13 14  1  0  0  0
 14 15  1  0  0  0
 15 16  1  0  0  0
 16 17  1  0  0  0
 17 18  1  0  0  0
 18 19  1  0  0  0
M  CHG 1  28  -1
M  END
> <minimizedAffinity>
-7.51855

> <CNNscore>
0.7796948552

> <CNNaffinity>
7.1021680832

> <CNN_VS>
5.5375237465

> <CNNaffinity_variance>
0.2325152457

$$$$
/media/chris/experiments/cd1a-new-docking/inputs/ligands/4x6e_ligand.pdb


 37 36  0  0  0  0  0  0  0  0999 V2000
  -41.1053   60.9226   66.3188 O   0  0  0  0  0  0  0  0  0  0  0  0
  -41.1650   59.7180   66.3154 C   0  0  0  0  0  0  0  0  0  0  0  0
  -42.1725   58.8981   67.0614 C   0  0  0  0  0  0  0  0  0  0  0  0
  -43.6029   59.3892   66.8730 C   0  0  0  0  0  0  0  0  0  0  0  0
  -44.2052   59.0555   65.5190 C   0  0  0  0  0  0  0  0  0  0  0  0
  -45.0207   57.7744   65.5195 C   0  0  0  0  0  0  0  0  0  0  0  0
  -46.0019   57.6978   66.6767 C   0  0  0  0  0  0  0  0  0  0  0  0
  -47.3208   57.0803   66.2684 C   0  0  0  0  0  0  0  0  0  0  0  0
  -48.1505   57.9236   65.3216 C   0  0  0  0  0  0  0  0  0  0  0  0
  -49.5214   58.2028   65.8062 C   0  0  0  0  0  0  0  0  0  0  0  0
  -50.3719   59.0584   65.2776 C   0  0  0  0  0  0  0  0  0  0  0  0
  -50.1664   59.9009   64.0609 C   0  0  0  0  0  0  0  0  0  0  0  0
  -51.1410   59.4814   62.9592 C   0  0  0  0  0  0  0  0  0  0  0  0
  -50.8407   58.1446   62.2973 C   0  0  0  0  0  0  0  0  0  0  0  0
  -49.7036   58.1690   61.2829 C   0  0  0  0  0  0  0  0  0  0  0  0
  -49.8383   57.1123   60.1914 C   0  0  0  0  0  0  0  0  0  0  0  0
  -49.2634   57.5404   58.8505 C   0  0  0  0  0  0  0  0  0  0  0  0
  -48.1016   56.7003   58.3416 C   0  0  0  0  0  0  0  0  0  0  0  0
  -47.5948   57.1589   57.0088 C   0  0  0  0  0  0  0  0  0  0  0  0
  -40.3376   58.9267   65.6261 O   0  0  0  0  0  0  0  0  0  0  0  0
  -39.3134   59.5566   64.8257 C   0  0  0  0  0  0  0  0  0  0  0  0
  -37.9254   59.2244   65.3311 C   0  0  0  0  0  0  0  0  0  0  0  0
  -37.7302   57.8057   65.4064 O   0  0  0  0  0  0  0  0  0  0  0  0
  -37.7933   57.4230   64.5173 H   0  0  0  0  0  0  0  0  0  0  0  0
  -36.8365   59.8373   64.4819 C   0  0  0  0  0  0  0  0  0  0  0  0
  -35.9783   60.7108   65.2552 O   0  0  0  0  0  0  0  0  0  0  0  0
  -35.9687   62.3011   65.4713 P   0  0  0  0  0  0  0  0  0  0  0  0
  -37.3279   62.7147   66.0331 O   0  0  0  0  0  0  0  0  0  0  0  0
  -35.7832   62.9566   64.1581 O   0  0  0  0  0  0  0  0  0  0  0  0
  -36.4855   62.6718   63.5525 H   0  0  0  0  0  0  0  0  0  0  0  0
  -34.7961   62.7578   66.5303 O   0  0  0  0  0  0  0  0  0  0  0  0
  -33.9657   63.9459   66.4227 C   0  0  0  0  0  0  0  0  0  0  0  0
  -32.7116   63.6366   65.6431 C   0  0  0  0  0  0  0  0  0  0  0  0
  -32.4266   64.5184   64.4416 N   0  0  0  0  0  0  0  0  0  0  0  0
  -32.4066   63.7046   63.1875 C   0  0  0  0  0  0  0  0  0  0  0  0
  -31.0901   65.1590   64.6259 C   0  0  0  0  0  0  0  0  0  0  0  0
  -33.4759   65.5853   64.3106 C   0  0  0  0  0  0  0  0  0  0  0  0
 34 33  1  0  0  0
 34 35  1  0  0  0
 34 36  1  0  0  0
 34 37  1  0  0  0
 22 23  1  0  0  0
 22 25  1  0  0  0
 22 21  1  0  0  0
 23 24  1  0  0  0
 27 26  1  0  0  0
 27 28  2  0  0  0
 27 31  1  0  0  0
 27 29  1  0  0  0
 25 26  1  0  0  0
 32 33  1  0  0  0
 32 31  1  0  0  0
 29 30  1  0  0  0
 20 21  1  0  0  0
 20  2  1  0  0  0
  1  2  2  0  0  0
  2  3  1  0  0  0
  3  4  1  0  0  0
  4  5  1  0  0  0
  5  6  1  0  0  0
  6  7  1  0  0  0
  7  8  1  0  0  0
  8  9  1  0  0  0
  9 10  1  0  0  0
 10 11  2  0  0  0
 11 12  1  0  0  0
 12 13  1  0  0  0
 13 14  1  0  0  0
 14 15  1  0  0  0
 15 16  1  0  0  0
 16 17  1  0  0  0
 17 18  1  0  0  0
 18 19  1  0  0  0
M  CHG 1  28  -1
M  END
> <minimizedAffinity>
-8.10536

> <CNNscore>
0.7723310590

> <CNNaffinity>
6.2931108475

> <CNN_VS>
4.8603649139

> <CNNaffinity_variance>
0.2818523049

$$$$
/media/chris/experiments/cd1a-new-docking/inputs/ligands/4x6e_ligand.pdb


 37 36  0  0  0  0  0  0  0  0999 V2000
  -41.7882   60.8178   65.6780 O   0  0  0  0  0  0  0  0  0  0  0  0
  -42.0073   59.6730   65.9881 C   0  0  0  0  0  0  0  0  0  0  0  0
  -43.1914   59.1994   66.7737 C   0  0  0  0  0  0  0  0  0  0  0  0
  -44.5222   59.5194   66.1036 C   0  0  0  0  0  0  0  0  0  0  0  0
  -44.8221   58.6774   64.8754 C   0  0  0  0  0  0  0  0  0  0  0  0
  -46.0479   59.1419   64.1087 C   0  0  0  0  0  0  0  0  0  0  0  0
  -47.2286   59.4530   65.0124 C   0  0  0  0  0  0  0  0  0  0  0  0
  -48.0346   58.2175   65.3462 C   0  0  0  0  0  0  0  0  0  0  0  0
  -49.4762   58.4841   65.7289 C   0  0  0  0  0  0  0  0  0  0  0  0
  -50.0794   59.6454   65.0362 C   0  0  0  0  0  0  0  0  0  0  0  0
  -50.6331   59.6341   63.8412 C   0  0  0  0  0  0  0  0  0  0  0  0
  -50.8140   58.4553   62.9410 C   0  0  0  0  0  0  0  0  0  0  0  0
  -50.3485   58.7979   61.5248 C   0  0  0  0  0  0  0  0  0  0  0  0
  -50.5285   57.6930   60.4942 C   0  0  0  0  0  0  0  0  0  0  0  0
  -49.3335   57.4679   59.5756 C   0  0  0  0  0  0  0  0  0  0  0  0
  -48.7121   56.0819   59.7131 C   0  0  0  0  0  0  0  0  0  0  0  0
  -47.3969   55.9238   58.9669 C   0  0  0  0  0  0  0  0  0  0  0  0
  -47.5200   55.7359   57.4622 C   0  0  0  0  0  0  0  0  0  0  0  0
  -47.4103   57.0242   56.7062 C   0  0  0  0  0  0  0  0  0  0  0  0
  -41.2215   58.6427   65.6614 O   0  0  0  0  0  0  0  0  0  0  0  0
  -39.8457   58.9249   65.3234 C   0  0  0  0  0  0  0  0  0  0  0  0
  -39.4597   58.3124   63.9937 C   0  0  0  0  0  0  0  0  0  0  0  0
  -39.7913   59.1879   62.9074 O   0  0  0  0  0  0  0  0  0  0  0  0
  -39.2803   60.0086   62.9860 H   0  0  0  0  0  0  0  0  0  0  0  0
  -37.9931   57.9565   63.9227 C   0  0  0  0  0  0  0  0  0  0  0  0
  -37.2096   58.7097   64.8800 O   0  0  0  0  0  0  0  0  0  0  0  0
  -36.2321   59.9726   64.7206 P   0  0  0  0  0  0  0  0  0  0  0  0
  -36.2185   60.3829   63.2490 O   0  0  0  0  0  0  0  0  0  0  0  0
  -34.8640   59.5648   65.1080 O   0  0  0  0  0  0  0  0  0  0  0  0
  -34.5845   58.8122   64.5634 H   0  0  0  0  0  0  0  0  0  0  0  0
  -36.7456   61.2489   65.6220 O   0  0  0  0  0  0  0  0  0  0  0  0
  -35.9433   62.3980   66.0079 C   0  0  0  0  0  0  0  0  0  0  0  0
  -35.7670   63.3288   64.8337 C   0  0  0  0  0  0  0  0  0  0  0  0
  -34.3989   63.9655   64.6741 N   0  0  0  0  0  0  0  0  0  0  0  0
  -34.4360   65.0307   63.6257 C   0  0  0  0  0  0  0  0  0  0  0  0
  -33.4266   62.9102   64.2598 C   0  0  0  0  0  0  0  0  0  0  0  0
  -33.9479   64.5764   65.9702 C   0  0  0  0  0  0  0  0  0  0  0  0
 34 33  1  0  0  0
 34 35  1  0  0  0
 34 36  1  0  0  0
 34 37  1  0  0  0
 22 23  1  0  0  0
 22 25  1  0  0  0
 22 21  1  0  0  0
 23 24  1  0  0  0
 27 26  1  0  0  0
 27 28  2  0  0  0
 27 31  1  0  0  0
 27 29  1  0  0  0
 25 26  1  0  0  0
 32 33  1  0  0  0
 32 31  1  0  0  0
 29 30  1  0  0  0
 20 21  1  0  0  0
 20  2  1  0  0  0
  1  2  2  0  0  0
  2  3  1  0  0  0
  3  4  1  0  0  0
  4  5  1  0  0  0
  5  6  1  0  0  0
  6  7  1  0  0  0
  7  8  1  0  0  0
  8  9  1  0  0  0
  9 10  1  0  0  0
 10 11  2  0  0  0
 11 12  1  0  0  0
 12 13  1  0  0  0
 13 14  1  0  0  0
 14 15  1  0  0  0
 15 16  1  0  0  0
 16 17  1  0  0  0
 17 18  1  0  0  0
 18 19  1  0  0  0
M  CHG 1  28  -1
M  END
> <minimizedAffinity>
-7.73215

> <CNNscore>
0.7636532187

> <CNNaffinity>
6.4828710556

> <CNN_VS>
4.9506654739

> <CNNaffinity_variance>
0.2731654644

$$$$
/media/chris/experiments/cd1a-new-docking/inputs/ligands/4x6e_ligand.pdb


 37 36  0  0  0  0  0  0  0  0999 V2000
  -40.5146   60.6406   66.2940 O   0  0  0  0  0  0  0  0  0  0  0  0
  -41.4116   59.8347   66.2698 C   0  0  0  0  0  0  0  0  0  0  0  0
  -42.6347   59.8731   67.1337 C   0  0  0  0  0  0  0  0  0  0  0  0
  -43.8171   59.1227   66.5325 C   0  0  0  0  0  0  0  0  0  0  0  0
  -44.6796   59.9579   65.6019 C   0  0  0  0  0  0  0  0  0  0  0  0
  -46.0111   59.3089   65.2670 C   0  0  0  0  0  0  0  0  0  0  0  0
  -46.8752   59.0645   66.4921 C   0  0  0  0  0  0  0  0  0  0  0  0
  -47.8309   57.9086   66.2967 C   0  0  0  0  0  0  0  0  0  0  0  0
  -48.7665   58.0514   65.1135 C   0  0  0  0  0  0  0  0  0  0  0  0
  -50.0402   58.7364   65.4309 C   0  0  0  0  0  0  0  0  0  0  0  0
  -50.7085   59.5413   64.6307 C   0  0  0  0  0  0  0  0  0  0  0  0
  -50.3612   59.9098   63.2250 C   0  0  0  0  0  0  0  0  0  0  0  0
  -50.9389   58.8801   62.2526 C   0  0  0  0  0  0  0  0  0  0  0  0
  -49.9127   58.0352   61.5120 C   0  0  0  0  0  0  0  0  0  0  0  0
  -50.3502   57.5507   60.1349 C   0  0  0  0  0  0  0  0  0  0  0  0
  -49.2150   57.5010   59.1176 C   0  0  0  0  0  0  0  0  0  0  0  0
  -48.3307   56.2710   59.2466 C   0  0  0  0  0  0  0  0  0  0  0  0
  -47.3553   56.0467   58.1008 C   0  0  0  0  0  0  0  0  0  0  0  0
  -47.5593   57.0069   56.9696 C   0  0  0  0  0  0  0  0  0  0  0  0
  -41.4531   58.7813   65.4486 O   0  0  0  0  0  0  0  0  0  0  0  0
  -40.1982   58.2515   64.9679 C   0  0  0  0  0  0  0  0  0  0  0  0
  -40.3870   57.4062   63.7261 C   0  0  0  0  0  0  0  0  0  0  0  0
  -41.3221   56.3450   63.9623 O   0  0  0  0  0  0  0  0  0  0  0  0
  -42.1922   56.7207   64.1689 H   0  0  0  0  0  0  0  0  0  0  0  0
  -40.8385   58.2181   62.5347 C   0  0  0  0  0  0  0  0  0  0  0  0
  -39.7330   58.5516   61.6605 O   0  0  0  0  0  0  0  0  0  0  0  0
  -38.6762   59.7594   61.6682 P   0  0  0  0  0  0  0  0  0  0  0  0
  -39.2992   60.9342   62.4204 O   0  0  0  0  0  0  0  0  0  0  0  0
  -38.4228   60.1762   60.2716 O   0  0  0  0  0  0  0  0  0  0  0  0
  -39.2611   60.4236   59.8509 H   0  0  0  0  0  0  0  0  0  0  0  0
  -37.2774   59.3307   62.4197 O   0  0  0  0  0  0  0  0  0  0  0  0
  -36.9174   59.6418   63.7932 C   0  0  0  0  0  0  0  0  0  0  0  0
  -35.4192   59.5915   63.9637 C   0  0  0  0  0  0  0  0  0  0  0  0
  -34.8074   58.2189   64.1737 N   0  0  0  0  0  0  0  0  0  0  0  0
  -33.8138   58.2534   65.2902 C   0  0  0  0  0  0  0  0  0  0  0  0
  -34.1118   57.8090   62.9172 C   0  0  0  0  0  0  0  0  0  0  0  0
  -35.8727   57.2124   64.5035 C   0  0  0  0  0  0  0  0  0  0  0  0
 34 33  1  0  0  0
 34 35  1  0  0  0
 34 36  1  0  0  0
 34 37  1  0  0  0
 22 23  1  0  0  0
 22 25  1  0  0  0
 22 21  1  0  0  0
 23 24  1  0  0  0
 27 26  1  0  0  0
 27 28  2  0  0  0
 27 31  1  0  0  0
 27 29  1  0  0  0
 25 26  1  0  0  0
 32 33  1  0  0  0
 32 31  1  0  0  0
 29 30  1  0  0  0
 20 21  1  0  0  0
 20  2  1  0  0  0
  1  2  2  0  0  0
  2  3  1  0  0  0
  3  4  1  0  0  0
  4  5  1  0  0  0
  5  6  1  0  0  0
  6  7  1  0  0  0
  7  8  1  0  0  0
  8  9  1  0  0  0
  9 10  1  0  0  0
 10 11  2  0  0  0
 11 12  1  0  0  0
 12 13  1  0  0  0
 13 14  1  0  0  0
 14 15  1  0  0  0
 15 16  1  0  0  0
 16 17  1  0  0  0
 17 18  1  0  0  0
 18 19  1  0  0  0
M  CHG 1  28  -1
M  END
> <minimizedAffinity>
-7.94457

> <CNNscore>
0.7543370724

> <CNNaffinity>
6.9009866714

> <CNN_VS>
5.2056698799

> <CNNaffinity_variance>
0.4612078071

$$$$
/media/chris/experiments/cd1a-new-docking/inputs/ligands/4x6e_ligand.pdb


 37 36  0  0  0  0  0  0  0  0999 V2000
  -41.7342   57.3791   64.0063 O   0  0  0  0  0  0  0  0  0  0  0  0
  -42.2993   58.4447   64.0095 C   0  0  0  0  0  0  0  0  0  0  0  0
  -43.7764   58.6427   63.8597 C   0  0  0  0  0  0  0  0  0  0  0  0
  -44.1765   60.1091   63.7493 C   0  0  0  0  0  0  0  0  0  0  0  0
  -45.5611   60.4217   64.2904 C   0  0  0  0  0  0  0  0  0  0  0  0
  -46.0340   59.4373   65.3456 C   0  0  0  0  0  0  0  0  0  0  0  0
  -47.3841   59.8058   65.9362 C   0  0  0  0  0  0  0  0  0  0  0  0
  -48.1896   58.5867   66.3269 C   0  0  0  0  0  0  0  0  0  0  0  0
  -49.4351   58.3555   65.4956 C   0  0  0  0  0  0  0  0  0  0  0  0
  -50.4216   59.4572   65.5678 C   0  0  0  0  0  0  0  0  0  0  0  0
  -50.8258   60.2039   64.5608 C   0  0  0  0  0  0  0  0  0  0  0  0
  -50.4185   60.0850   63.1282 C   0  0  0  0  0  0  0  0  0  0  0  0
  -51.1777   58.9386   62.4582 C   0  0  0  0  0  0  0  0  0  0  0  0
  -50.3080   57.8724   61.8084 C   0  0  0  0  0  0  0  0  0  0  0  0
  -50.6865   57.5174   60.3755 C   0  0  0  0  0  0  0  0  0  0  0  0
  -49.6701   57.9911   59.3418 C   0  0  0  0  0  0  0  0  0  0  0  0
  -48.6696   56.9220   58.9324 C   0  0  0  0  0  0  0  0  0  0  0  0
  -48.0460   57.1058   57.5569 C   0  0  0  0  0  0  0  0  0  0  0  0
  -47.0585   56.0312   57.2199 C   0  0  0  0  0  0  0  0  0  0  0  0
  -41.6838   59.6210   64.1617 O   0  0  0  0  0  0  0  0  0  0  0  0
  -40.7067   59.7386   65.2191 C   0  0  0  0  0  0  0  0  0  0  0  0
  -39.3318   60.0662   64.6761 C   0  0  0  0  0  0  0  0  0  0  0  0
  -39.3472   61.2991   63.9439 O   0  0  0  0  0  0  0  0  0  0  0  0
  -39.5831   62.0266   64.5405 H   0  0  0  0  0  0  0  0  0  0  0  0
  -38.2820   60.1385   65.7602 C   0  0  0  0  0  0  0  0  0  0  0  0
  -37.2139   59.1856   65.5395 O   0  0  0  0  0  0  0  0  0  0  0  0
  -36.2261   58.9384   64.2989 P   0  0  0  0  0  0  0  0  0  0  0  0
  -34.8835   58.4568   64.8463 O   0  0  0  0  0  0  0  0  0  0  0  0
  -36.0147   60.2239   63.5981 O   0  0  0  0  0  0  0  0  0  0  0  0
  -35.6645   60.8787   64.2223 H   0  0  0  0  0  0  0  0  0  0  0  0
  -36.8206   57.7976   63.2740 O   0  0  0  0  0  0  0  0  0  0  0  0
  -37.3673   58.0430   61.9497 C   0  0  0  0  0  0  0  0  0  0  0  0
  -38.8477   57.7520   61.9347 C   0  0  0  0  0  0  0  0  0  0  0  0
  -39.6139   58.2031   60.7051 N   0  0  0  0  0  0  0  0  0  0  0  0
  -40.6735   57.2086   60.3540 C   0  0  0  0  0  0  0  0  0  0  0  0
  -38.6585   58.3182   59.5629 C   0  0  0  0  0  0  0  0  0  0  0  0
  -40.2617   59.5365   60.9480 C   0  0  0  0  0  0  0  0  0  0  0  0
 34 33  1  0  0  0
 34 35  1  0  0  0
 34 36  1  0  0  0
 34 37  1  0  0  0
 22 23  1  0  0  0
 22 25  1  0  0  0
 22 21  1  0  0  0
 23 24  1  0  0  0
 27 26  1  0  0  0
 27 28  2  0  0  0
 27 31  1  0  0  0
 27 29  1  0  0  0
 25 26  1  0  0  0
 32 33  1  0  0  0
 32 31  1  0  0  0
 29 30  1  0  0  0
 20 21  1  0  0  0
 20  2  1  0  0  0
  1  2  2  0  0  0
  2  3  1  0  0  0
  3  4  1  0  0  0
  4  5  1  0  0  0
  5  6  1  0  0  0
  6  7  1  0  0  0
  7  8  1  0  0  0
  8  9  1  0  0  0
  9 10  1  0  0  0
 10 11  2  0  0  0
 11 12  1  0  0  0
 12 13  1  0  0  0
 13 14  1  0  0  0
 14 15  1  0  0  0
 15 16  1  0  0  0
 16 17  1  0  0  0
 17 18  1  0  0  0
 18 19  1  0  0  0
M  CHG 1  28  -1
M  END
> <minimizedAffinity>
-7.84547

> <CNNscore>
0.7276312709

> <CNNaffinity>
7.0959486961

> <CNN_VS>
5.1632342339

> <CNNaffinity_variance>
0.3505504131

$$$$
/media/chris/experiments/cd1a-new-docking/inputs/ligands/4x6e_ligand.pdb


 37 36  0  0  0  0  0  0  0  0999 V2000
  -41.4728   61.0277   66.6382 O   0  0  0  0  0  0  0  0  0  0  0  0
  -41.5473   59.9761   66.0523 C   0  0  0  0  0  0  0  0  0  0  0  0
  -42.2678   58.7587   66.5448 C   0  0  0  0  0  0  0  0  0  0  0  0
  -43.7812   58.9336   66.5862 C   0  0  0  0  0  0  0  0  0  0  0  0
  -44.5644   57.6437   66.4118 C   0  0  0  0  0  0  0  0  0  0  0  0
  -46.0539   57.8633   66.2133 C   0  0  0  0  0  0  0  0  0  0  0  0
  -46.5921   59.0340   67.0179 C   0  0  0  0  0  0  0  0  0  0  0  0
  -47.2881   60.0554   66.1462 C   0  0  0  0  0  0  0  0  0  0  0  0
  -47.3593   59.6928   64.6767 C   0  0  0  0  0  0  0  0  0  0  0  0
  -48.2808   60.5434   63.8895 C   0  0  0  0  0  0  0  0  0  0  0  0
  -49.5022   60.2236   63.5144 C   0  0  0  0  0  0  0  0  0  0  0  0
  -50.2424   58.9642   63.8280 C   0  0  0  0  0  0  0  0  0  0  0  0
  -50.7806   58.3355   62.5416 C   0  0  0  0  0  0  0  0  0  0  0  0
  -49.7251   57.9251   61.5252 C   0  0  0  0  0  0  0  0  0  0  0  0
  -50.2550   57.6425   60.1246 C   0  0  0  0  0  0  0  0  0  0  0  0
  -49.1569   57.4889   59.0774 C   0  0  0  0  0  0  0  0  0  0  0  0
  -48.2888   56.2567   59.2768 C   0  0  0  0  0  0  0  0  0  0  0  0
  -47.2796   55.9849   58.1713 C   0  0  0  0  0  0  0  0  0  0  0  0
  -47.4655   56.8789   56.9841 C   0  0  0  0  0  0  0  0  0  0  0  0
  -41.0012   59.7428   64.8551 O   0  0  0  0  0  0  0  0  0  0  0  0
  -41.7678   60.0985   63.6837 C   0  0  0  0  0  0  0  0  0  0  0  0
  -41.1558   59.5298   62.4209 C   0  0  0  0  0  0  0  0  0  0  0  0
  -42.1634   59.2553   61.4382 O   0  0  0  0  0  0  0  0  0  0  0  0
  -42.5971   60.0836   61.1796 H   0  0  0  0  0  0  0  0  0  0  0  0
  -40.1064   60.4385   61.8247 C   0  0  0  0  0  0  0  0  0  0  0  0
  -38.7917   60.1740   62.3716 O   0  0  0  0  0  0  0  0  0  0  0  0
  -37.8160   61.0408   63.3057 P   0  0  0  0  0  0  0  0  0  0  0  0
  -36.5061   60.2720   63.4710 O   0  0  0  0  0  0  0  0  0  0  0  0
  -38.4443   61.1914   64.6365 O   0  0  0  0  0  0  0  0  0  0  0  0
  -38.6269   60.3144   65.0089 H   0  0  0  0  0  0  0  0  0  0  0  0
  -37.4890   62.5077   62.6375 O   0  0  0  0  0  0  0  0  0  0  0  0
  -36.7902   63.6041   63.2875 C   0  0  0  0  0  0  0  0  0  0  0  0
  -35.4297   63.1504   63.7559 C   0  0  0  0  0  0  0  0  0  0  0  0
  -35.1321   63.3182   65.2344 N   0  0  0  0  0  0  0  0  0  0  0  0
  -36.3764   63.6760   65.9819 C   0  0  0  0  0  0  0  0  0  0  0  0
  -34.1341   64.4172   65.3986 C   0  0  0  0  0  0  0  0  0  0  0  0
  -34.5713   62.0474   65.8063 C   0  0  0  0  0  0  0  0  0  0  0  0
 34 33  1  0  0  0
 34 35  1  0  0  0
 34 36  1  0  0  0
 34 37  1  0  0  0
 22 23  1  0  0  0
 22 25  1  0  0  0
 22 21  1  0  0  0
 23 24  1  0  0  0
 27 26  1  0  0  0
 27 28  2  0  0  0
 27 31  1  0  0  0
 27 29  1  0  0  0
 25 26  1  0  0  0
 32 33  1  0  0  0
 32 31  1  0  0  0
 29 30  1  0  0  0
 20 21  1  0  0  0
 20  2  1  0  0  0
  1  2  2  0  0  0
  2  3  1  0  0  0
  3  4  1  0  0  0
  4  5  1  0  0  0
  5  6  1  0  0  0
  6  7  1  0  0  0
  7  8  1  0  0  0
  8  9  1  0  0  0
  9 10  1  0  0  0
 10 11  2  0  0  0
 11 12  1  0  0  0
 12 13  1  0  0  0
 13 14  1  0  0  0
 14 15  1  0  0  0
 15 16  1  0  0  0
 16 17  1  0  0  0
 17 18  1  0  0  0
 18 19  1  0  0  0
M  CHG 1  28  -1
M  END
> <minimizedAffinity>
-7.82898

> <CNNscore>
0.7064098120

> <CNNaffinity>
6.5550398827

> <CNN_VS>
4.6305446625

> <CNNaffinity_variance>
0.3149662912

$$$$
/media/chris/experiments/cd1a-new-docking/inputs/ligands/4x6e_ligand.pdb


 37 36  0  0  0  0  0  0  0  0999 V2000
  -41.0626   61.1532   66.1472 O   0  0  0  0  0  0  0  0  0  0  0  0
  -40.9250   59.9559   66.1936 C   0  0  0  0  0  0  0  0  0  0  0  0
  -41.8661   59.0006   66.8610 C   0  0  0  0  0  0  0  0  0  0  0  0
  -43.3145   59.4742   66.8418 C   0  0  0  0  0  0  0  0  0  0  0  0
  -44.1665   58.8360   65.7582 C   0  0  0  0  0  0  0  0  0  0  0  0
  -44.3288   59.7075   64.5252 C   0  0  0  0  0  0  0  0  0  0  0  0
  -45.6717   60.4157   64.4735 C   0  0  0  0  0  0  0  0  0  0  0  0
  -46.7559   59.6387   65.1866 C   0  0  0  0  0  0  0  0  0  0  0  0
  -48.1402   60.2476   65.0919 C   0  0  0  0  0  0  0  0  0  0  0  0
  -48.4941   60.7337   63.7389 C   0  0  0  0  0  0  0  0  0  0  0  0
  -49.5840   60.4283   63.0653 C   0  0  0  0  0  0  0  0  0  0  0  0
  -50.7161   59.5669   63.5222 C   0  0  0  0  0  0  0  0  0  0  0  0
  -50.7253   58.2515   62.7416 C   0  0  0  0  0  0  0  0  0  0  0  0
  -50.4852   58.3800   61.2446 C   0  0  0  0  0  0  0  0  0  0  0  0
  -50.1773   57.0714   60.5268 C   0  0  0  0  0  0  0  0  0  0  0  0
  -48.9788   57.1592   59.5876 C   0  0  0  0  0  0  0  0  0  0  0  0
  -48.1902   55.8638   59.4786 C   0  0  0  0  0  0  0  0  0  0  0  0
  -47.0399   55.8832   58.4831 C   0  0  0  0  0  0  0  0  0  0  0  0
  -47.4945   56.1262   57.0768 C   0  0  0  0  0  0  0  0  0  0  0  0
  -39.9050   59.2949   65.6382 O   0  0  0  0  0  0  0  0  0  0  0  0
  -38.7395   60.0556   65.2514 C   0  0  0  0  0  0  0  0  0  0  0  0
  -38.4253   59.8880   63.7798 C   0  0  0  0  0  0  0  0  0  0  0  0
  -39.4439   59.1249   63.1190 O   0  0  0  0  0  0  0  0  0  0  0  0
  -40.2864   59.6037   63.1632 H   0  0  0  0  0  0  0  0  0  0  0  0
  -38.2475   61.2099   63.0703 C   0  0  0  0  0  0  0  0  0  0  0  0
  -37.8790   62.2680   63.9879 O   0  0  0  0  0  0  0  0  0  0  0  0
  -36.6009   63.2358   64.0635 P   0  0  0  0  0  0  0  0  0  0  0  0
  -36.3641   63.6002   65.5282 O   0  0  0  0  0  0  0  0  0  0  0  0
  -36.8998   64.4749   63.3127 O   0  0  0  0  0  0  0  0  0  0  0  0
  -37.6973   64.8895   63.6775 H   0  0  0  0  0  0  0  0  0  0  0  0
  -35.2526   62.4996   63.4758 O   0  0  0  0  0  0  0  0  0  0  0  0
  -33.8809   62.9182   63.7122 C   0  0  0  0  0  0  0  0  0  0  0  0
  -33.0920   62.8693   62.4271 C   0  0  0  0  0  0  0  0  0  0  0  0
  -31.5818   62.8096   62.5616 N   0  0  0  0  0  0  0  0  0  0  0  0
  -30.9303   63.6981   61.5510 C   0  0  0  0  0  0  0  0  0  0  0  0
  -31.1371   61.4028   62.3296 C   0  0  0  0  0  0  0  0  0  0  0  0
  -31.1578   63.2452   63.9353 C   0  0  0  0  0  0  0  0  0  0  0  0
 34 33  1  0  0  0
 34 35  1  0  0  0
 34 36  1  0  0  0
 34 37  1  0  0  0
 22 23  1  0  0  0
 22 25  1  0  0  0
 22 21  1  0  0  0
 23 24  1  0  0  0
 27 26  1  0  0  0
 27 28  2  0  0  0
 27 31  1  0  0  0
 27 29  1  0  0  0
 25 26  1  0  0  0
 32 33  1  0  0  0
 32 31  1  0  0  0
 29 30  1  0  0  0
 20 21  1  0  0  0
 20  2  1  0  0  0
  1  2  2  0  0  0
  2  3  1  0  0  0
  3  4  1  0  0  0
  4  5  1  0  0  0
  5  6  1  0  0  0
  6  7  1  0  0  0
  7  8  1  0  0  0
  8  9  1  0  0  0
  9 10  1  0  0  0
 10 11  2  0  0  0
 11 12  1  0  0  0
 12 13  1  0  0  0
 13 14  1  0  0  0
 14 15  1  0  0  0
 15 16  1  0  0  0
 16 17  1  0  0  0
 17 18  1  0  0  0
 18 19  1  0  0  0
M  CHG 1  28  -1
M  END
> <minimizedAffinity>
-7.80460

> <CNNscore>
0.6983895898

> <CNNaffinity>
6.1793560982

> <CNN_VS>
4.3155980110

> <CNNaffinity_variance>
0.3664181530

$$$$
/media/chris/experiments/cd1a-new-docking/inputs/ligands/4x6e_ligand.pdb


 37 36  0  0  0  0  0  0  0  0999 V2000
  -41.8569   56.9465   62.9081 O   0  0  0  0  0  0  0  0  0  0  0  0
  -41.7132   57.7948   63.7534 C   0  0  0  0  0  0  0  0  0  0  0  0
  -42.6190   58.0114   64.9265 C   0  0  0  0  0  0  0  0  0  0  0  0
  -44.0796   57.7014   64.6214 C   0  0  0  0  0  0  0  0  0  0  0  0
  -44.8507   58.8603   64.0133 C   0  0  0  0  0  0  0  0  0  0  0  0
  -45.2281   59.9307   65.0223 C   0  0  0  0  0  0  0  0  0  0  0  0
  -46.7247   60.0092   65.2703 C   0  0  0  0  0  0  0  0  0  0  0  0
  -47.2773   58.7240   65.8451 C   0  0  0  0  0  0  0  0  0  0  0  0
  -48.4551   58.1447   65.0879 C   0  0  0  0  0  0  0  0  0  0  0  0
  -49.7726   58.4751   65.6773 C   0  0  0  0  0  0  0  0  0  0  0  0
  -50.6795   59.2725   65.1517 C   0  0  0  0  0  0  0  0  0  0  0  0
  -50.6053   59.9837   63.8398 C   0  0  0  0  0  0  0  0  0  0  0  0
  -51.1767   59.1008   62.7291 C   0  0  0  0  0  0  0  0  0  0  0  0
  -50.3274   59.0053   61.4701 C   0  0  0  0  0  0  0  0  0  0  0  0
  -50.5242   57.7326   60.6553 C   0  0  0  0  0  0  0  0  0  0  0  0
  -49.9857   57.8313   59.2318 C   0  0  0  0  0  0  0  0  0  0  0  0
  -48.7779   56.9453   58.9712 C   0  0  0  0  0  0  0  0  0  0  0  0
  -48.0738   57.1775   57.6427 C   0  0  0  0  0  0  0  0  0  0  0  0
  -47.0216   56.1506   57.3570 C   0  0  0  0  0  0  0  0  0  0  0  0
  -40.7039   58.6704   63.7751 O   0  0  0  0  0  0  0  0  0  0  0  0
  -39.9071   58.7508   64.9772 C   0  0  0  0  0  0  0  0  0  0  0  0
  -39.4204   60.1617   65.2321 C   0  0  0  0  0  0  0  0  0  0  0  0
  -40.4017   60.9240   65.9478 O   0  0  0  0  0  0  0  0  0  0  0  0
  -40.5471   60.5260   66.8204 H   0  0  0  0  0  0  0  0  0  0  0  0
  -38.1104   60.1966   65.9840 C   0  0  0  0  0  0  0  0  0  0  0  0
  -37.7396   61.5460   66.3569 O   0  0  0  0  0  0  0  0  0  0  0  0
  -36.6018   62.5415   65.8183 P   0  0  0  0  0  0  0  0  0  0  0  0
  -36.5057   63.7229   66.7823 O   0  0  0  0  0  0  0  0  0  0  0  0
  -37.0074   63.0502   64.4897 O   0  0  0  0  0  0  0  0  0  0  0  0
  -37.8724   63.4837   64.5598 H   0  0  0  0  0  0  0  0  0  0  0  0
  -35.1368   61.7975   65.7440 O   0  0  0  0  0  0  0  0  0  0  0  0
  -34.4711   61.3443   64.5339 C   0  0  0  0  0  0  0  0  0  0  0  0
  -35.2345   60.1987   63.9167 C   0  0  0  0  0  0  0  0  0  0  0  0
  -34.4617   58.9118   63.6948 N   0  0  0  0  0  0  0  0  0  0  0  0
  -35.2927   57.9255   62.9386 C   0  0  0  0  0  0  0  0  0  0  0  0
  -34.1094   58.3311   65.0250 C   0  0  0  0  0  0  0  0  0  0  0  0
  -33.2031   59.1802   62.9201 C   0  0  0  0  0  0  0  0  0  0  0  0
 34 33  1  0  0  0
 34 35  1  0  0  0
 34 36  1  0  0  0
 34 37  1  0  0  0
 22 23  1  0  0  0
 22 25  1  0  0  0
 22 21  1  0  0  0
 23 24  1  0  0  0
 27 26  1  0  0  0
 27 28  2  0  0  0
 27 31  1  0  0  0
 27 29  1  0  0  0
 25 26  1  0  0  0
 32 33  1  0  0  0
 32 31  1  0  0  0
 29 30  1  0  0  0
 20 21  1  0  0  0
 20  2  1  0  0  0
  1  2  2  0  0  0
  2  3  1  0  0  0
  3  4  1  0  0  0
  4  5  1  0  0  0
  5  6  1  0  0  0
  6  7  1  0  0  0
  7  8  1  0  0  0
  8  9  1  0  0  0
  9 10  1  0  0  0
 10 11  2  0  0  0
 11 12  1  0  0  0
 12 13  1  0  0  0
 13 14  1  0  0  0
 14 15  1  0  0  0
 15 16  1  0  0  0
 16 17  1  0  0  0
 17 18  1  0  0  0
 18 19  1  0  0  0
M  CHG 1  28  -1
M  END
> <minimizedAffinity>
-8.02359

> <CNNscore>
0.6961066723

> <CNNaffinity>
6.7070207596

> <CNN_VS>
4.6688017845

> <CNNaffinity_variance>
0.2852333188

$$$$
