/media/chris/experiments/cd1a-new-docking/inputs/ligands/4x6e_ligand.pdb


 37 36  0  0  0  0  0  0  0  0999 V2000
  -42.4650   56.5344   65.0201 O   0  0  0  0  0  0  0  0  0  0  0  0
  -42.9333   57.2583   65.8636 C   0  0  0  0  0  0  0  0  0  0  0  0
  -44.3801   57.6271   65.9829 C   0  0  0  0  0  0  0  0  0  0  0  0
  -44.9408   58.2708   64.7204 C   0  0  0  0  0  0  0  0  0  0  0  0
  -45.2501   59.7516   64.8581 C   0  0  0  0  0  0  0  0  0  0  0  0
  -46.7094   60.0899   64.6095 C   0  0  0  0  0  0  0  0  0  0  0  0
  -47.5263   60.1631   65.8882 C   0  0  0  0  0  0  0  0  0  0  0  0
  -48.2646   58.8735   66.1698 C   0  0  0  0  0  0  0  0  0  0  0  0
  -49.2203   58.4374   65.0777 C   0  0  0  0  0  0  0  0  0  0  0  0
  -50.4550   59.2504   64.9967 C   0  0  0  0  0  0  0  0  0  0  0  0
  -50.9155   59.8564   63.9218 C   0  0  0  0  0  0  0  0  0  0  0  0
  -50.3284   59.8288   62.5481 C   0  0  0  0  0  0  0  0  0  0  0  0
  -50.7276   58.5382   61.8307 C   0  0  0  0  0  0  0  0  0  0  0  0
  -49.8486   58.1493   60.6510 C   0  0  0  0  0  0  0  0  0  0  0  0
  -49.4923   56.6696   60.5733 C   0  0  0  0  0  0  0  0  0  0  0  0
  -48.5685   56.3258   59.4095 C   0  0  0  0  0  0  0  0  0  0  0  0
  -48.5307   57.3887   58.3230 C   0  0  0  0  0  0  0  0  0  0  0  0
  -47.9862   56.9275   56.9793 C   0  0  0  0  0  0  0  0  0  0  0  0
  -47.0256   55.7851   57.1044 C   0  0  0  0  0  0  0  0  0  0  0  0
  -42.2226   57.8359   66.8367 O   0  0  0  0  0  0  0  0  0  0  0  0
  -42.0178   59.2642   66.7649 C   0  0  0  0  0  0  0  0  0  0  0  0
  -41.1203   59.6430   65.6060 C   0  0  0  0  0  0  0  0  0  0  0  0
  -41.4118   60.9674   65.1399 O   0  0  0  0  0  0  0  0  0  0  0  0
  -41.2271   61.6066   65.8457 H   0  0  0  0  0  0  0  0  0  0  0  0
  -39.6531   59.5434   65.9520 C   0  0  0  0  0  0  0  0  0  0  0  0
  -39.0043   60.8379   65.9230 O   0  0  0  0  0  0  0  0  0  0  0  0
  -37.5380   61.3014   65.4635 P   0  0  0  0  0  0  0  0  0  0  0  0
  -37.6756   62.1155   64.1780 O   0  0  0  0  0  0  0  0  0  0  0  0
  -36.7295   60.0971   65.1735 O   0  0  0  0  0  0  0  0  0  0  0  0
  -37.1754   59.5635   64.4971 H   0  0  0  0  0  0  0  0  0  0  0  0
  -36.8160   62.2362   66.6080 O   0  0  0  0  0  0  0  0  0  0  0  0
  -35.4109   62.6070   66.6444 C   0  0  0  0  0  0  0  0  0  0  0  0
  -35.1987   63.9170   65.9269 C   0  0  0  0  0  0  0  0  0  0  0  0
  -34.0317   63.9773   64.9587 N   0  0  0  0  0  0  0  0  0  0  0  0
  -32.8184   64.5306   65.6348 C   0  0  0  0  0  0  0  0  0  0  0  0
  -34.4021   64.8694   63.8197 C   0  0  0  0  0  0  0  0  0  0  0  0
  -33.7117   62.6067   64.4337 C   0  0  0  0  0  0  0  0  0  0  0  0
 34 33  1  0  0  0
 34 35  1  0  0  0
 34 36  1  0  0  0
 34 37  1  0  0  0
 22 23  1  0  0  0
 22 25  1  0  0  0
 22 21  1  0  0  0
 23 24  1  0  0  0
 27 26  1  0  0  0
 27 28  2  0  0  0
 27 31  1  0  0  0
 27 29  1  0  0  0
 25 26  1  0  0  0
 32 33  1  0  0  0
 32 31  1  0  0  0
 29 30  1  0  0  0
 20 21  1  0  0  0
 20  2  1  0  0  0
  1  2  2  0  0  0
  2  3  1  0  0  0
  3  4  1  0  0  0
  4  5  1  0  0  0
  5  6  1  0  0  0
  6  7  1  0  0  0
  7  8  1  0  0  0
  8  9  1  0  0  0
  9 10  1  0  0  0
 10 11  2  0  0  0
 11 12  1  0  0  0
 12 13  1  0  0  0
 13 14  1  0  0  0
 14 15  1  0  0  0
 15 16  1  0  0  0
 16 17  1  0  0  0
 17 18  1  0  0  0
 18 19  1  0  0  0
M  CHG 1  28  -1
M  END
> <minimizedAffinity>
-8.01729

> <CNNscore>
0.8546434641

> <CNNaffinity>
6.4930787086

> <CNN_VS>
5.5492672920

> <CNNaffinity_variance>
0.0827371702

$$$$
/media/chris/experiments/cd1a-new-docking/inputs/ligands/4x6e_ligand.pdb


 37 36  0  0  0  0  0  0  0  0999 V2000
  -40.7209   56.9356   63.6168 O   0  0  0  0  0  0  0  0  0  0  0  0
  -40.5753   57.7960   64.4494 C   0  0  0  0  0  0  0  0  0  0  0  0
  -41.6109   58.2239   65.4435 C   0  0  0  0  0  0  0  0  0  0  0  0
  -43.0339   57.9023   65.0028 C   0  0  0  0  0  0  0  0  0  0  0  0
  -44.1003   58.2603   66.0237 C   0  0  0  0  0  0  0  0  0  0  0  0
  -45.3327   57.3765   65.9455 C   0  0  0  0  0  0  0  0  0  0  0  0
  -46.5758   58.0427   66.5097 C   0  0  0  0  0  0  0  0  0  0  0  0
  -47.8428   57.3176   66.1143 C   0  0  0  0  0  0  0  0  0  0  0  0
  -48.5771   57.9201   64.9336 C   0  0  0  0  0  0  0  0  0  0  0  0
  -49.8276   58.6247   65.2967 C   0  0  0  0  0  0  0  0  0  0  0  0
  -50.5787   59.3400   64.4849 C   0  0  0  0  0  0  0  0  0  0  0  0
  -50.3664   59.5671   63.0234 C   0  0  0  0  0  0  0  0  0  0  0  0
  -51.0075   58.4370   62.2163 C   0  0  0  0  0  0  0  0  0  0  0  0
  -50.0642   57.6769   61.2955 C   0  0  0  0  0  0  0  0  0  0  0  0
  -50.3088   57.8878   59.8062 C   0  0  0  0  0  0  0  0  0  0  0  0
  -49.1363   57.4602   58.9297 C   0  0  0  0  0  0  0  0  0  0  0  0
  -48.3287   56.3083   59.5065 C   0  0  0  0  0  0  0  0  0  0  0  0
  -47.1914   55.8066   58.6292 C   0  0  0  0  0  0  0  0  0  0  0  0
  -47.3945   56.1234   57.1795 C   0  0  0  0  0  0  0  0  0  0  0  0
  -39.4493   58.4953   64.6181 O   0  0  0  0  0  0  0  0  0  0  0  0
  -38.2495   58.0055   63.9798 C   0  0  0  0  0  0  0  0  0  0  0  0
  -37.0580   58.0591   64.9123 C   0  0  0  0  0  0  0  0  0  0  0  0
  -36.2857   56.8535   64.8316 O   0  0  0  0  0  0  0  0  0  0  0  0
  -35.9247   56.7601   63.9361 H   0  0  0  0  0  0  0  0  0  0  0  0
  -36.1645   59.2474   64.6443 C   0  0  0  0  0  0  0  0  0  0  0  0
  -36.8806   60.4994   64.7747 O   0  0  0  0  0  0  0  0  0  0  0  0
  -36.4000   62.0297   64.7185 P   0  0  0  0  0  0  0  0  0  0  0  0
  -37.1649   62.8100   65.7864 O   0  0  0  0  0  0  0  0  0  0  0  0
  -36.7446   62.5862   63.3918 O   0  0  0  0  0  0  0  0  0  0  0  0
  -37.6984   62.4944   63.2406 H   0  0  0  0  0  0  0  0  0  0  0  0
  -34.7880   62.1657   65.0155 O   0  0  0  0  0  0  0  0  0  0  0  0
  -34.1798   62.9480   66.0790 C   0  0  0  0  0  0  0  0  0  0  0  0
  -32.8665   63.5272   65.6146 C   0  0  0  0  0  0  0  0  0  0  0  0
  -32.7492   65.0401   65.6338 N   0  0  0  0  0  0  0  0  0  0  0  0
  -31.3127   65.4539   65.6506 C   0  0  0  0  0  0  0  0  0  0  0  0
  -33.4172   65.5549   66.8663 C   0  0  0  0  0  0  0  0  0  0  0  0
  -33.4111   65.6349   64.4235 C   0  0  0  0  0  0  0  0  0  0  0  0
 34 33  1  0  0  0
 34 35  1  0  0  0
 34 36  1  0  0  0
 34 37  1  0  0  0
 22 23  1  0  0  0
 22 25  1  0  0  0
 22 21  1  0  0  0
 23 24  1  0  0  0
 27 26  1  0  0  0
 27 28  2  0  0  0
 27 31  1  0  0  0
 27 29  1  0  0  0
 25 26  1  0  0  0
 32 33  1  0  0  0
 32 31  1  0  0  0
 29 30  1  0  0  0
 20 21  1  0  0  0
 20  2  1  0  0  0
  1  2  2  0  0  0
  2  3  1  0  0  0
  3  4  1  0  0  0
  4  5  1  0  0  0
  5  6  1  0  0  0
  6  7  1  0  0  0
  7  8  1  0  0  0
  8  9  1  0  0  0
  9 10  1  0  0  0
 10 11  2  0  0  0
 11 12  1  0  0  0
 12 13  1  0  0  0
 13 14  1  0  0  0
 14 15  1  0  0  0
 15 16  1  0  0  0
 16 17  1  0  0  0
 17 18  1  0  0  0
 18 19  1  0  0  0
M  CHG 1  28  -1
M  END
> <minimizedAffinity>
-7.87710

> <CNNscore>
0.7779181600

> <CNNaffinity>
6.4021210670

> <CNN_VS>
4.9803261757

> <CNNaffinity_variance>
0.4150905013

$$$$
/media/chris/experiments/cd1a-new-docking/inputs/ligands/4x6e_ligand.pdb


 37 36  0  0  0  0  0  0  0  0999 V2000
  -41.6888   60.9206   63.7449 O   0  0  0  0  0  0  0  0  0  0  0  0
  -42.2696   59.9478   63.3313 C   0  0  0  0  0  0  0  0  0  0  0  0
  -43.7564   59.8125   63.2104 C   0  0  0  0  0  0  0  0  0  0  0  0
  -44.3714   58.9538   64.3091 C   0  0  0  0  0  0  0  0  0  0  0  0
  -44.2291   59.5310   65.7070 C   0  0  0  0  0  0  0  0  0  0  0  0
  -45.0623   58.8049   66.7484 C   0  0  0  0  0  0  0  0  0  0  0  0
  -45.5003   57.4221   66.2972 C   0  0  0  0  0  0  0  0  0  0  0  0
  -46.8985   57.0843   66.7644 C   0  0  0  0  0  0  0  0  0  0  0  0
  -47.9959   57.4109   65.7718 C   0  0  0  0  0  0  0  0  0  0  0  0
  -48.7042   58.6806   66.0519 C   0  0  0  0  0  0  0  0  0  0  0  0
  -49.7424   59.1514   65.3922 C   0  0  0  0  0  0  0  0  0  0  0  0
  -50.4587   58.5021   64.2530 C   0  0  0  0  0  0  0  0  0  0  0  0
  -50.9833   59.5650   63.2863 C   0  0  0  0  0  0  0  0  0  0  0  0
  -50.6301   59.3462   61.8224 C   0  0  0  0  0  0  0  0  0  0  0  0
  -50.8696   57.9325   61.3063 C   0  0  0  0  0  0  0  0  0  0  0  0
  -50.0463   57.5880   60.0696 C   0  0  0  0  0  0  0  0  0  0  0  0
  -49.1722   56.3556   60.2396 C   0  0  0  0  0  0  0  0  0  0  0  0
  -48.1113   56.1565   59.1675 C   0  0  0  0  0  0  0  0  0  0  0  0
  -48.2750   57.0920   58.0092 C   0  0  0  0  0  0  0  0  0  0  0  0
  -41.6634   58.8368   62.9025 O   0  0  0  0  0  0  0  0  0  0  0  0
  -41.3594   58.7356   61.4938 C   0  0  0  0  0  0  0  0  0  0  0  0
  -39.8695   58.6220   61.2500 C   0  0  0  0  0  0  0  0  0  0  0  0
  -39.5809   57.5952   60.2915 O   0  0  0  0  0  0  0  0  0  0  0  0
  -39.9780   57.8288   59.4379 H   0  0  0  0  0  0  0  0  0  0  0  0
  -39.2557   59.9242   60.7918 C   0  0  0  0  0  0  0  0  0  0  0  0
  -38.9277   60.7867   61.9080 O   0  0  0  0  0  0  0  0  0  0  0  0
  -38.1578   60.5186   63.2905 P   0  0  0  0  0  0  0  0  0  0  0  0
  -36.8184   59.8567   62.9706 O   0  0  0  0  0  0  0  0  0  0  0  0
  -38.9618   59.5832   64.1070 O   0  0  0  0  0  0  0  0  0  0  0  0
  -39.1144   58.7663   63.6066 H   0  0  0  0  0  0  0  0  0  0  0  0
  -37.8755   61.9201   64.1038 O   0  0  0  0  0  0  0  0  0  0  0  0
  -36.9876   62.9893   63.6780 C   0  0  0  0  0  0  0  0  0  0  0  0
  -36.3890   63.6793   64.8787 C   0  0  0  0  0  0  0  0  0  0  0  0
  -34.9376   63.3623   65.1879 N   0  0  0  0  0  0  0  0  0  0  0  0
  -34.4477   62.2494   64.3180 C   0  0  0  0  0  0  0  0  0  0  0  0
  -34.8348   62.9425   66.6174 C   0  0  0  0  0  0  0  0  0  0  0  0
  -34.0748   64.5710   64.9609 C   0  0  0  0  0  0  0  0  0  0  0  0
 34 33  1  0  0  0
 34 35  1  0  0  0
 34 36  1  0  0  0
 34 37  1  0  0  0
 22 23  1  0  0  0
 22 25  1  0  0  0
 22 21  1  0  0  0
 23 24  1  0  0  0
 27 26  1  0  0  0
 27 28  2  0  0  0
 27 31  1  0  0  0
 27 29  1  0  0  0
 25 26  1  0  0  0
 32 33  1  0  0  0
 32 31  1  0  0  0
 29 30  1  0  0  0
 20 21  1  0  0  0
 20  2  1  0  0  0
  1  2  2  0  0  0
  2  3  1  0  0  0
  3  4  1  0  0  0
  4  5  1  0  0  0
  5  6  1  0  0  0
  6  7  1  0  0  0
  7  8  1  0  0  0
  8  9  1  0  0  0
  9 10  1  0  0  0
 10 11  2  0  0  0
 11 12  1  0  0  0
 12 13  1  0  0  0
 13 14  1  0  0  0
 14 15  1  0  0  0
 15 16  1  0  0  0
 16 17  1  0  0  0
 17 18  1  0  0  0
 18 19  1  0  0  0
M  CHG 1  28  -1
M  END
> <minimizedAffinity>
-7.77327

> <CNNscore>
0.7328584194

> <CNNaffinity>
6.7974157333

> <CNN_VS>
4.9815435410

> <CNNaffinity_variance>
0.5763322115

$$$$
/media/chris/experiments/cd1a-new-docking/inputs/ligands/4x6e_ligand.pdb


 37 36  0  0  0  0  0  0  0  0999 V2000
  -43.0902   55.8479   65.0803 O   0  0  0  0  0  0  0  0  0  0  0  0
  -42.8867   57.0084   65.3384 C   0  0  0  0  0  0  0  0  0  0  0  0
  -43.7683   57.8757   66.1836 C   0  0  0  0  0  0  0  0  0  0  0  0
  -45.2483   57.7318   65.8498 C   0  0  0  0  0  0  0  0  0  0  0  0
  -45.9014   59.0061   65.3426 C   0  0  0  0  0  0  0  0  0  0  0  0
  -46.6784   59.7538   66.4118 C   0  0  0  0  0  0  0  0  0  0  0  0
  -48.1376   59.9639   66.0454 C   0  0  0  0  0  0  0  0  0  0  0  0
  -48.8479   58.6605   65.7558 C   0  0  0  0  0  0  0  0  0  0  0  0
  -50.3408   58.7877   65.5292 C   0  0  0  0  0  0  0  0  0  0  0  0
  -50.7364   60.0049   64.7849 C   0  0  0  0  0  0  0  0  0  0  0  0
  -50.6065   60.1979   63.4885 C   0  0  0  0  0  0  0  0  0  0  0  0
  -50.0762   59.2311   62.4802 C   0  0  0  0  0  0  0  0  0  0  0  0
  -51.1416   58.1876   62.1401 C   0  0  0  0  0  0  0  0  0  0  0  0
  -50.8891   57.3879   60.8704 C   0  0  0  0  0  0  0  0  0  0  0  0
  -50.4538   58.2130   59.6653 C   0  0  0  0  0  0  0  0  0  0  0  0
  -49.0042   57.9747   59.2555 C   0  0  0  0  0  0  0  0  0  0  0  0
  -48.8063   56.7355   58.3970 C   0  0  0  0  0  0  0  0  0  0  0  0
  -47.9488   56.9332   57.1560 C   0  0  0  0  0  0  0  0  0  0  0  0
  -46.8229   55.9493   57.0666 C   0  0  0  0  0  0  0  0  0  0  0  0
  -41.8240   57.6976   64.9127 O   0  0  0  0  0  0  0  0  0  0  0  0
  -41.9829   58.5248   63.7391 C   0  0  0  0  0  0  0  0  0  0  0  0
  -41.6820   57.7576   62.4691 C   0  0  0  0  0  0  0  0  0  0  0  0
  -41.9647   58.5509   61.3085 O   0  0  0  0  0  0  0  0  0  0  0  0
  -41.3846   59.3283   61.2991 H   0  0  0  0  0  0  0  0  0  0  0  0
  -40.2529   57.2714   62.4098 C   0  0  0  0  0  0  0  0  0  0  0  0
  -39.3107   58.3340   62.6937 O   0  0  0  0  0  0  0  0  0  0  0  0
  -38.4648   59.3108   61.7417 P   0  0  0  0  0  0  0  0  0  0  0  0
  -39.4439   60.2147   60.9942 O   0  0  0  0  0  0  0  0  0  0  0  0
  -37.7323   58.4907   60.7522 O   0  0  0  0  0  0  0  0  0  0  0  0
  -38.3619   57.9461   60.2542 H   0  0  0  0  0  0  0  0  0  0  0  0
  -37.4320   60.2515   62.6098 O   0  0  0  0  0  0  0  0  0  0  0  0
  -37.0334   60.0310   63.9902 C   0  0  0  0  0  0  0  0  0  0  0  0
  -36.1820   58.7899   64.0953 C   0  0  0  0  0  0  0  0  0  0  0  0
  -34.6836   58.9828   63.9528 N   0  0  0  0  0  0  0  0  0  0  0  0
  -34.1899   58.3401   62.6964 C   0  0  0  0  0  0  0  0  0  0  0  0
  -34.0072   58.3460   65.1221 C   0  0  0  0  0  0  0  0  0  0  0  0
  -34.3421   60.4452   63.9160 C   0  0  0  0  0  0  0  0  0  0  0  0
 34 33  1  0  0  0
 34 35  1  0  0  0
 34 36  1  0  0  0
 34 37  1  0  0  0
 22 23  1  0  0  0
 22 25  1  0  0  0
 22 21  1  0  0  0
 23 24  1  0  0  0
 27 26  1  0  0  0
 27 28  2  0  0  0
 27 31  1  0  0  0
 27 29  1  0  0  0
 25 26  1  0  0  0
 32 33  1  0  0  0
 32 31  1  0  0  0
 29 30  1  0  0  0
 20 21  1  0  0  0
 20  2  1  0  0  0
  1  2  2  0  0  0
  2  3  1  0  0  0
  3  4  1  0  0  0
  4  5  1  0  0  0
  5  6  1  0  0  0
  6  7  1  0  0  0
  7  8  1  0  0  0
  8  9  1  0  0  0
  9 10  1  0  0  0
 10 11  2  0  0  0
 11 12  1  0  0  0
 12 13  1  0  0  0
 13 14  1  0  0  0
 14 15  1  0  0  0
 15 16  1  0  0  0
 16 17  1  0  0  0
 17 18  1  0  0  0
 18 19  1  0  0  0
M  CHG 1  28  -1
M  END
> <minimizedAffinity>
-7.68880

> <CNNscore>
0.6768852472

> <CNNaffinity>
6.6397156715

> <CNN_VS>
4.4943256378

> <CNNaffinity_variance>
0.1733865142

$$$$
/media/chris/experiments/cd1a-new-docking/inputs/ligands/4x6e_ligand.pdb


 37 36  0  0  0  0  0  0  0  0999 V2000
  -44.7591   58.3288   63.3250 O   0  0  0  0  0  0  0  0  0  0  0  0
  -44.1470   59.1393   63.9754 C   0  0  0  0  0  0  0  0  0  0  0  0
  -44.6486   59.8117   65.2164 C   0  0  0  0  0  0  0  0  0  0  0  0
  -44.2776   59.0671   66.4933 C   0  0  0  0  0  0  0  0  0  0  0  0
  -45.0252   57.7601   66.6944 C   0  0  0  0  0  0  0  0  0  0  0  0
  -46.3844   57.9358   67.3483 C   0  0  0  0  0  0  0  0  0  0  0  0
  -47.4574   57.0568   66.7290 C   0  0  0  0  0  0  0  0  0  0  0  0
  -47.8236   57.5008   65.3304 C   0  0  0  0  0  0  0  0  0  0  0  0
  -48.3150   58.9304   65.2263 C   0  0  0  0  0  0  0  0  0  0  0  0
  -49.7118   59.1226   65.6782 C   0  0  0  0  0  0  0  0  0  0  0  0
  -50.6969   59.6234   64.9617 C   0  0  0  0  0  0  0  0  0  0  0  0
  -50.6416   60.0674   63.5361 C   0  0  0  0  0  0  0  0  0  0  0  0
  -51.1774   58.9658   62.6202 C   0  0  0  0  0  0  0  0  0  0  0  0
  -50.1198   58.1734   61.8657 C   0  0  0  0  0  0  0  0  0  0  0  0
  -49.8764   58.6270   60.4314 C   0  0  0  0  0  0  0  0  0  0  0  0
  -49.8150   57.4773   59.4311 C   0  0  0  0  0  0  0  0  0  0  0  0
  -48.5377   57.4503   58.6068 C   0  0  0  0  0  0  0  0  0  0  0  0
  -47.8353   56.1025   58.5380 C   0  0  0  0  0  0  0  0  0  0  0  0
  -47.3793   55.7564   57.1539 C   0  0  0  0  0  0  0  0  0  0  0  0
  -42.9095   59.5535   63.6879 O   0  0  0  0  0  0  0  0  0  0  0  0
  -42.3191   59.1038   62.4485 C   0  0  0  0  0  0  0  0  0  0  0  0
  -41.3326   57.9779   62.6751 C   0  0  0  0  0  0  0  0  0  0  0  0
  -41.9359   56.9040   63.4093 O   0  0  0  0  0  0  0  0  0  0  0  0
  -42.6634   56.5263   62.8907 H   0  0  0  0  0  0  0  0  0  0  0  0
  -40.7562   57.4433   61.3850 C   0  0  0  0  0  0  0  0  0  0  0  0
  -39.3425   57.7342   61.2658 O   0  0  0  0  0  0  0  0  0  0  0  0
  -38.5456   59.0343   60.7649 P   0  0  0  0  0  0  0  0  0  0  0  0
  -39.5678   60.0787   60.3192 O   0  0  0  0  0  0  0  0  0  0  0  0
  -37.7151   58.6611   59.5991 O   0  0  0  0  0  0  0  0  0  0  0  0
  -38.2809   58.2867   58.9057 H   0  0  0  0  0  0  0  0  0  0  0  0
  -37.6231   59.6748   61.9665 O   0  0  0  0  0  0  0  0  0  0  0  0
  -38.0837   60.0279   63.2993 C   0  0  0  0  0  0  0  0  0  0  0  0
  -36.9340   59.9899   64.2754 C   0  0  0  0  0  0  0  0  0  0  0  0
  -36.2842   61.3203   64.6082 N   0  0  0  0  0  0  0  0  0  0  0  0
  -34.8398   61.3087   64.2227 C   0  0  0  0  0  0  0  0  0  0  0  0
  -36.3921   61.5492   66.0800 C   0  0  0  0  0  0  0  0  0  0  0  0
  -36.9718   62.4392   63.8788 C   0  0  0  0  0  0  0  0  0  0  0  0
 34 33  1  0  0  0
 34 35  1  0  0  0
 34 36  1  0  0  0
 34 37  1  0  0  0
 22 23  1  0  0  0
 22 25  1  0  0  0
 22 21  1  0  0  0
 23 24  1  0  0  0
 27 26  1  0  0  0
 27 28  2  0  0  0
 27 31  1  0  0  0
 27 29  1  0  0  0
 25 26  1  0  0  0
 32 33  1  0  0  0
 32 31  1  0  0  0
 29 30  1  0  0  0
 20 21  1  0  0  0
 20  2  1  0  0  0
  1  2  2  0  0  0
  2  3  1  0  0  0
  3  4  1  0  0  0
  4  5  1  0  0  0
  5  6  1  0  0  0
  6  7  1  0  0  0
  7  8  1  0  0  0
  8  9  1  0  0  0
  9 10  1  0  0  0
 10 11  2  0  0  0
 11 12  1  0  0  0
 12 13  1  0  0  0
 13 14  1  0  0  0
 14 15  1  0  0  0
 15 16  1  0  0  0
 16 17  1  0  0  0
 17 18  1  0  0  0
 18 19  1  0  0  0
M  CHG 1  28  -1
M  END
> <minimizedAffinity>
-7.68594

> <CNNscore>
0.6312099695

> <CNNaffinity>
6.6871581078

> <CNN_VS>
4.2210006714

> <CNNaffinity_variance>
0.1498689353

$$$$
/media/chris/experiments/cd1a-new-docking/inputs/ligands/4x6e_ligand.pdb


 37 36  0  0  0  0  0  0  0  0999 V2000
  -43.3062   60.4974   62.0550 O   0  0  0  0  0  0  0  0  0  0  0  0
  -43.0521   59.7090   62.9317 C   0  0  0  0  0  0  0  0  0  0  0  0
  -44.0265   58.7503   63.5441 C   0  0  0  0  0  0  0  0  0  0  0  0
  -45.3530   59.4009   63.9182 C   0  0  0  0  0  0  0  0  0  0  0  0
  -45.3272   60.1616   65.2328 C   0  0  0  0  0  0  0  0  0  0  0  0
  -45.1889   59.2626   66.4487 C   0  0  0  0  0  0  0  0  0  0  0  0
  -46.5276   58.8659   67.0472 C   0  0  0  0  0  0  0  0  0  0  0  0
  -47.0105   57.5284   66.5322 C   0  0  0  0  0  0  0  0  0  0  0  0
  -48.3966   57.5466   65.9201 C   0  0  0  0  0  0  0  0  0  0  0  0
  -48.8796   58.8992   65.5605 C   0  0  0  0  0  0  0  0  0  0  0  0
  -49.5935   59.2110   64.4986 C   0  0  0  0  0  0  0  0  0  0  0  0
  -50.1075   58.2785   63.4503 C   0  0  0  0  0  0  0  0  0  0  0  0
  -50.1375   58.9792   62.0910 C   0  0  0  0  0  0  0  0  0  0  0  0
  -50.7556   58.1753   60.9565 C   0  0  0  0  0  0  0  0  0  0  0  0
  -49.9914   56.9152   60.5690 C   0  0  0  0  0  0  0  0  0  0  0  0
  -48.7365   57.1922   59.7476 C   0  0  0  0  0  0  0  0  0  0  0  0
  -48.9562   57.1053   58.2456 C   0  0  0  0  0  0  0  0  0  0  0  0
  -47.6980   57.2067   57.3964 C   0  0  0  0  0  0  0  0  0  0  0  0
  -47.0871   55.8709   57.1035 C   0  0  0  0  0  0  0  0  0  0  0  0
  -41.8444   59.5641   63.4850 O   0  0  0  0  0  0  0  0  0  0  0  0
  -41.7788   59.3343   64.9097 C   0  0  0  0  0  0  0  0  0  0  0  0
  -40.9060   58.1434   65.2445 C   0  0  0  0  0  0  0  0  0  0  0  0
  -41.5891   56.9117   64.9749 O   0  0  0  0  0  0  0  0  0  0  0  0
  -41.7803   56.8490   64.0260 H   0  0  0  0  0  0  0  0  0  0  0  0
  -39.5903   58.1614   64.5022 C   0  0  0  0  0  0  0  0  0  0  0  0
  -38.5374   58.7709   65.2879 O   0  0  0  0  0  0  0  0  0  0  0  0
  -37.9110   60.2486   65.2935 P   0  0  0  0  0  0  0  0  0  0  0  0
  -38.0992   60.8417   66.6889 O   0  0  0  0  0  0  0  0  0  0  0  0
  -38.6545   61.0821   64.3236 O   0  0  0  0  0  0  0  0  0  0  0  0
  -39.5971   61.0814   64.5526 H   0  0  0  0  0  0  0  0  0  0  0  0
  -36.3047   60.2227   64.9409 O   0  0  0  0  0  0  0  0  0  0  0  0
  -35.5254   61.3388   64.4309 C   0  0  0  0  0  0  0  0  0  0  0  0
  -34.9274   62.1223   65.5731 C   0  0  0  0  0  0  0  0  0  0  0  0
  -35.2461   63.6052   65.6169 N   0  0  0  0  0  0  0  0  0  0  0  0
  -35.7282   63.9974   66.9767 C   0  0  0  0  0  0  0  0  0  0  0  0
  -36.3200   63.8923   64.6196 C   0  0  0  0  0  0  0  0  0  0  0  0
  -34.0266   64.4161   65.2823 C   0  0  0  0  0  0  0  0  0  0  0  0
 34 33  1  0  0  0
 34 35  1  0  0  0
 34 36  1  0  0  0
 34 37  1  0  0  0
 22 23  1  0  0  0
 22 25  1  0  0  0
 22 21  1  0  0  0
 23 24  1  0  0  0
 27 26  1  0  0  0
 27 28  2  0  0  0
 27 31  1  0  0  0
 27 29  1  0  0  0
 25 26  1  0  0  0
 32 33  1  0  0  0
 32 31  1  0  0  0
 29 30  1  0  0  0
 20 21  1  0  0  0
 20  2  1  0  0  0
  1  2  2  0  0  0
  2  3  1  0  0  0
  3  4  1  0  0  0
  4  5  1  0  0  0
  5  6  1  0  0  0
  6  7  1  0  0  0
  7  8  1  0  0  0
  8  9  1  0  0  0
  9 10  1  0  0  0
 10 11  2  0  0  0
 11 12  1  0  0  0
 12 13  1  0  0  0
 13 14  1  0  0  0
 14 15  1  0  0  0
 15 16  1  0  0  0
 16 17  1  0  0  0
 17 18  1  0  0  0
 18 19  1  0  0  0
M  CHG 1  28  -1
M  END
> <minimizedAffinity>
-7.44392

> <CNNscore>
0.6252290010

> <CNNaffinity>
6.5060396194

> <CNN_VS>
4.0677647591

> <CNNaffinity_variance>
0.1695424467

$$$$
/media/chris/experiments/cd1a-new-docking/inputs/ligands/4x6e_ligand.pdb


 37 36  0  0  0  0  0  0  0  0999 V2000
  -40.3109   60.8499   66.1275 O   0  0  0  0  0  0  0  0  0  0  0  0
  -41.2812   60.1602   65.9339 C   0  0  0  0  0  0  0  0  0  0  0  0
  -42.1666   59.5911   66.9998 C   0  0  0  0  0  0  0  0  0  0  0  0
  -43.3589   58.8232   66.4418 C   0  0  0  0  0  0  0  0  0  0  0  0
  -44.7102   59.3821   66.8530 C   0  0  0  0  0  0  0  0  0  0  0  0
  -45.6077   59.7208   65.6758 C   0  0  0  0  0  0  0  0  0  0  0  0
  -47.0845   59.5527   65.9896 C   0  0  0  0  0  0  0  0  0  0  0  0
  -47.5608   58.1361   65.7578 C   0  0  0  0  0  0  0  0  0  0  0  0
  -49.0608   57.9879   65.6031 C   0  0  0  0  0  0  0  0  0  0  0  0
  -49.7710   59.2638   65.3584 C   0  0  0  0  0  0  0  0  0  0  0  0
  -50.0648   59.7746   64.1805 C   0  0  0  0  0  0  0  0  0  0  0  0
  -49.7896   59.1724   62.8410 C   0  0  0  0  0  0  0  0  0  0  0  0
  -50.9634   58.2924   62.4081 C   0  0  0  0  0  0  0  0  0  0  0  0
  -50.8829   57.7499   60.9887 C   0  0  0  0  0  0  0  0  0  0  0  0
  -49.6919   58.2444   60.1767 C   0  0  0  0  0  0  0  0  0  0  0  0
  -49.3806   57.3767   58.9617 C   0  0  0  0  0  0  0  0  0  0  0  0
  -48.2618   56.3740   59.1957 C   0  0  0  0  0  0  0  0  0  0  0  0
  -47.4611   55.9914   57.9599 C   0  0  0  0  0  0  0  0  0  0  0  0
  -47.4667   57.0611   56.9115 C   0  0  0  0  0  0  0  0  0  0  0  0
  -41.7227   59.8074   64.7230 O   0  0  0  0  0  0  0  0  0  0  0  0
  -42.3022   60.8362   63.8907 C   0  0  0  0  0  0  0  0  0  0  0  0
  -43.1841   60.2496   62.8089 C   0  0  0  0  0  0  0  0  0  0  0  0
  -42.8770   60.8184   61.5289 O   0  0  0  0  0  0  0  0  0  0  0  0
  -41.9650   60.5944   61.2859 H   0  0  0  0  0  0  0  0  0  0  0  0
  -43.0800   58.7446   62.7282 C   0  0  0  0  0  0  0  0  0  0  0  0
  -42.3783   58.3169   61.5357 O   0  0  0  0  0  0  0  0  0  0  0  0
  -40.8708   57.8252   61.2871 P   0  0  0  0  0  0  0  0  0  0  0  0
  -40.8600   56.9232   60.0540 O   0  0  0  0  0  0  0  0  0  0  0  0
  -40.4329   57.0304   62.4554 O   0  0  0  0  0  0  0  0  0  0  0  0
  -41.0441   56.2892   62.5896 H   0  0  0  0  0  0  0  0  0  0  0  0
  -39.8593   59.0951   61.0238 O   0  0  0  0  0  0  0  0  0  0  0  0
  -39.1727   59.8651   62.0478 C   0  0  0  0  0  0  0  0  0  0  0  0
  -37.8500   59.2224   62.3845 C   0  0  0  0  0  0  0  0  0  0  0  0
  -37.2190   59.6237   63.7050 N   0  0  0  0  0  0  0  0  0  0  0  0
  -35.7374   59.4285   63.6582 C   0  0  0  0  0  0  0  0  0  0  0  0
  -37.7879   58.7650   64.7863 C   0  0  0  0  0  0  0  0  0  0  0  0
  -37.5087   61.0657   64.0103 C   0  0  0  0  0  0  0  0  0  0  0  0
 34 33  1  0  0  0
 34 35  1  0  0  0
 34 36  1  0  0  0
 34 37  1  0  0  0
 22 23  1  0  0  0
 22 25  1  0  0  0
 22 21  1  0  0  0
 23 24  1  0  0  0
 27 26  1  0  0  0
 27 28  2  0  0  0
 27 31  1  0  0  0
 27 29  1  0  0  0
 25 26  1  0  0  0
 32 33  1  0  0  0
 32 31  1  0  0  0
 29 30  1  0  0  0
 20 21  1  0  0  0
 20  2  1  0  0  0
  1  2  2  0  0  0
  2  3  1  0  0  0
  3  4  1  0  0  0
  4  5  1  0  0  0
  5  6  1  0  0  0
  6  7  1  0  0  0
  7  8  1  0  0  0
  8  9  1  0  0  0
  9 10  1  0  0  0
 10 11  2  0  0  0
 11 12  1  0  0  0
 12 13  1  0  0  0
 13 14  1  0  0  0
 14 15  1  0  0  0
 15 16  1  0  0  0
 16 17  1  0  0  0
 17 18  1  0  0  0
 18 19  1  0  0  0
M  CHG 1  28  -1
M  END
> <minimizedAffinity>
-7.71606

> <CNNscore>
0.6048095226

> <CNNaffinity>
6.8434510231

> <CNN_VS>
4.1389842033

> <CNNaffinity_variance>
0.3621405661

$$$$
/media/chris/experiments/cd1a-new-docking/inputs/ligands/4x6e_ligand.pdb


 37 36  0  0  0  0  0  0  0  0999 V2000
  -39.4991   58.7030   65.5943 O   0  0  0  0  0  0  0  0  0  0  0  0
  -39.9088   59.8209   65.7873 C   0  0  0  0  0  0  0  0  0  0  0  0
  -41.3488   60.2000   65.9498 C   0  0  0  0  0  0  0  0  0  0  0  0
  -42.0568   59.4102   67.0441 C   0  0  0  0  0  0  0  0  0  0  0  0
  -43.2622   58.6199   66.5644 C   0  0  0  0  0  0  0  0  0  0  0  0
  -44.4801   59.4838   66.2878 C   0  0  0  0  0  0  0  0  0  0  0  0
  -45.7057   59.0479   67.0723 C   0  0  0  0  0  0  0  0  0  0  0  0
  -46.9910   59.5401   66.4453 C   0  0  0  0  0  0  0  0  0  0  0  0
  -47.1247   59.2541   64.9633 C   0  0  0  0  0  0  0  0  0  0  0  0
  -47.6659   60.3858   64.1769 C   0  0  0  0  0  0  0  0  0  0  0  0
  -48.9278   60.5678   63.8467 C   0  0  0  0  0  0  0  0  0  0  0  0
  -50.0918   59.7083   64.2197 C   0  0  0  0  0  0  0  0  0  0  0  0
  -50.8055   59.2130   62.9607 C   0  0  0  0  0  0  0  0  0  0  0  0
  -50.1371   58.0461   62.2487 C   0  0  0  0  0  0  0  0  0  0  0  0
  -50.6492   57.7725   60.8397 C   0  0  0  0  0  0  0  0  0  0  0  0
  -49.6509   58.1397   59.7467 C   0  0  0  0  0  0  0  0  0  0  0  0
  -49.0140   56.9366   59.0696 C   0  0  0  0  0  0  0  0  0  0  0  0
  -48.2235   57.2429   57.8063 C   0  0  0  0  0  0  0  0  0  0  0  0
  -47.1685   56.2189   57.5201 C   0  0  0  0  0  0  0  0  0  0  0  0
  -39.1270   60.8988   65.8985 O   0  0  0  0  0  0  0  0  0  0  0  0
  -37.8094   60.7206   66.4633 C   0  0  0  0  0  0  0  0  0  0  0  0
  -36.7763   61.5679   65.7513 C   0  0  0  0  0  0  0  0  0  0  0  0
  -35.4540   61.2697   66.2190 O   0  0  0  0  0  0  0  0  0  0  0  0
  -35.2378   60.3473   66.0108 H   0  0  0  0  0  0  0  0  0  0  0  0
  -36.8273   61.4052   64.2502 C   0  0  0  0  0  0  0  0  0  0  0  0
  -35.9487   60.3484   63.7934 O   0  0  0  0  0  0  0  0  0  0  0  0
  -36.2126   58.8100   63.4198 P   0  0  0  0  0  0  0  0  0  0  0  0
  -36.3072   58.0124   64.7195 O   0  0  0  0  0  0  0  0  0  0  0  0
  -35.0595   58.3068   62.6417 O   0  0  0  0  0  0  0  0  0  0  0  0
  -34.2457   58.4260   63.1560 H   0  0  0  0  0  0  0  0  0  0  0  0
  -37.6160   58.6263   62.5820 O   0  0  0  0  0  0  0  0  0  0  0  0
  -38.3236   57.3747   62.3674 C   0  0  0  0  0  0  0  0  0  0  0  0
  -39.3792   57.5483   61.3036 C   0  0  0  0  0  0  0  0  0  0  0  0
  -40.7719   57.9112   61.7847 N   0  0  0  0  0  0  0  0  0  0  0  0
  -41.1444   57.0904   62.9774 C   0  0  0  0  0  0  0  0  0  0  0  0
  -41.7435   57.6373   60.6841 C   0  0  0  0  0  0  0  0  0  0  0  0
  -40.8382   59.3651   62.1567 C   0  0  0  0  0  0  0  0  0  0  0  0
 34 33  1  0  0  0
 34 35  1  0  0  0
 34 36  1  0  0  0
 34 37  1  0  0  0
 22 23  1  0  0  0
 22 25  1  0  0  0
 22 21  1  0  0  0
 23 24  1  0  0  0
 27 26  1  0  0  0
 27 28  2  0  0  0
 27 31  1  0  0  0
 27 29  1  0  0  0
 25 26  1  0  0  0
 32 33  1  0  0  0
 32 31  1  0  0  0
 29 30  1  0  0  0
 20 21  1  0  0  0
 20  2  1  0  0  0
  1  2  2  0  0  0
  2  3  1  0  0  0
  3  4  1  0  0  0
  4  5  1  0  0  0
  5  6  1  0  0  0
  6  7  1  0  0  0
  7  8  1  0  0  0
  8  9  1  0  0  0
  9 10  1  0  0  0
 10 11  2  0  0  0
 11 12  1  0  0  0
 12 13  1  0  0  0
 13 14  1  0  0  0
 14 15  1  0  0  0
 15 16  1  0  0  0
 16 17  1  0  0  0
 17 18  1  0  0  0
 18 19  1  0  0  0
M  CHG 1  28  -1
M  END
> <minimizedAffinity>
-7.83312

> <CNNscore>
0.5896018744

> <CNNaffinity>
6.8298811913

> <CNN_VS>
4.0269107819

> <CNNaffinity_variance>
0.2348636687

$$$$
/media/chris/experiments/cd1a-new-docking/inputs/ligands/4x6e_ligand.pdb


 37 36  0  0  0  0  0  0  0  0999 V2000
  -41.6189   61.3631   64.5460 O   0  0  0  0  0  0  0  0  0  0  0  0
  -41.8324   60.4110   63.8370 C   0  0  0  0  0  0  0  0  0  0  0  0
  -43.0420   60.2282   62.9725 C   0  0  0  0  0  0  0  0  0  0  0  0
  -43.7529   61.5375   62.6517 C   0  0  0  0  0  0  0  0  0  0  0  0
  -45.0917   61.7089   63.3487 C   0  0  0  0  0  0  0  0  0  0  0  0
  -45.4319   60.5692   64.2927 C   0  0  0  0  0  0  0  0  0  0  0  0
  -46.9232   60.2917   64.3727 C   0  0  0  0  0  0  0  0  0  0  0  0
  -47.2619   58.8693   63.9863 C   0  0  0  0  0  0  0  0  0  0  0  0
  -48.2764   58.1916   64.8850 C   0  0  0  0  0  0  0  0  0  0  0  0
  -49.4663   59.0204   65.1840 C   0  0  0  0  0  0  0  0  0  0  0  0
  -50.5099   59.1910   64.3988 C   0  0  0  0  0  0  0  0  0  0  0  0
  -50.7478   58.5634   63.0639 C   0  0  0  0  0  0  0  0  0  0  0  0
  -50.6196   59.6127   61.9583 C   0  0  0  0  0  0  0  0  0  0  0  0
  -49.8037   59.1867   60.7466 C   0  0  0  0  0  0  0  0  0  0  0  0
  -50.0955   57.7811   60.2353 C   0  0  0  0  0  0  0  0  0  0  0  0
  -49.2995   57.4090   58.9887 C   0  0  0  0  0  0  0  0  0  0  0  0
  -48.2358   56.3508   59.2345 C   0  0  0  0  0  0  0  0  0  0  0  0
  -47.3906   55.9834   58.0240 C   0  0  0  0  0  0  0  0  0  0  0  0
  -47.5127   56.9760   56.9089 C   0  0  0  0  0  0  0  0  0  0  0  0
  -41.0043   59.3704   63.7069 O   0  0  0  0  0  0  0  0  0  0  0  0
  -39.5893   59.6101   63.8728 C   0  0  0  0  0  0  0  0  0  0  0  0
  -39.1237   59.2645   65.2713 C   0  0  0  0  0  0  0  0  0  0  0  0
  -38.3232   58.0747   65.2687 O   0  0  0  0  0  0  0  0  0  0  0  0
  -37.5205   58.2262   64.7457 H   0  0  0  0  0  0  0  0  0  0  0  0
  -38.3508   60.3889   65.9198 C   0  0  0  0  0  0  0  0  0  0  0  0
  -38.0278   61.4360   64.9729 O   0  0  0  0  0  0  0  0  0  0  0  0
  -36.8433   62.5179   64.9210 P   0  0  0  0  0  0  0  0  0  0  0  0
  -36.7020   63.1382   66.3101 O   0  0  0  0  0  0  0  0  0  0  0  0
  -37.2166   63.5836   63.9654 O   0  0  0  0  0  0  0  0  0  0  0  0
  -38.0621   63.9765   64.2334 H   0  0  0  0  0  0  0  0  0  0  0  0
  -35.4122   61.8238   64.5025 O   0  0  0  0  0  0  0  0  0  0  0  0
  -34.0964   62.2413   64.9580 C   0  0  0  0  0  0  0  0  0  0  0  0
  -33.5855   63.3766   64.1058 C   0  0  0  0  0  0  0  0  0  0  0  0
  -32.9146   64.5240   64.8380 N   0  0  0  0  0  0  0  0  0  0  0  0
  -33.6717   64.8662   66.0809 C   0  0  0  0  0  0  0  0  0  0  0  0
  -32.8928   65.7163   63.9390 C   0  0  0  0  0  0  0  0  0  0  0  0
  -31.5068   64.1578   65.2131 C   0  0  0  0  0  0  0  0  0  0  0  0
 34 33  1  0  0  0
 34 35  1  0  0  0
 34 36  1  0  0  0
 34 37  1  0  0  0
 22 23  1  0  0  0
 22 25  1  0  0  0
 22 21  1  0  0  0
 23 24  1  0  0  0
 27 26  1  0  0  0
 27 28  2  0  0  0
 27 31  1  0  0  0
 27 29  1  0  0  0
 25 26  1  0  0  0
 32 33  1  0  0  0
 32 31  1  0  0  0
 29 30  1  0  0  0
 20 21  1  0  0  0
 20  2  1  0  0  0
  1  2  2  0  0  0
  2  3  1  0  0  0
  3  4  1  0  0  0
  4  5  1  0  0  0
  5  6  1  0  0  0
  6  7  1  0  0  0
  7  8  1  0  0  0
  8  9  1  0  0  0
  9 10  1  0  0  0
 10 11  2  0  0  0
 11 12  1  0  0  0
 12 13  1  0  0  0
 13 14  1  0  0  0
 14 15  1  0  0  0
 15 16  1  0  0  0
 16 17  1  0  0  0
 17 18  1  0  0  0
 18 19  1  0  0  0
M  CHG 1  28  -1
M  END
> <minimizedAffinity>
-8.00435

> <CNNscore>
0.5869405866

> <CNNaffinity>
6.1731109619

> <CNN_VS>
3.6232492924

> <CNNaffinity_variance>
0.2745332718

$$$$
