/media/chris/experiments/cd1a-new-docking/inputs/ligands/4x6e_ligand.pdb


 37 36  0  0  0  0  0  0  0  0999 V2000
  -42.2981   56.2601   65.3423 O   0  0  0  0  0  0  0  0  0  0  0  0
  -42.8066   57.3454   65.4771 C   0  0  0  0  0  0  0  0  0  0  0  0
  -43.5805   57.7967   66.6776 C   0  0  0  0  0  0  0  0  0  0  0  0
  -44.5604   58.9228   66.3705 C   0  0  0  0  0  0  0  0  0  0  0  0
  -46.0036   58.6100   66.7264 C   0  0  0  0  0  0  0  0  0  0  0  0
  -46.4497   57.2279   66.2824 C   0  0  0  0  0  0  0  0  0  0  0  0
  -47.9598   57.0965   66.1838 C   0  0  0  0  0  0  0  0  0  0  0  0
  -48.5632   58.1204   65.2484 C   0  0  0  0  0  0  0  0  0  0  0  0
  -50.0573   58.3196   65.4039 C   0  0  0  0  0  0  0  0  0  0  0  0
  -50.5484   59.6206   64.8956 C   0  0  0  0  0  0  0  0  0  0  0  0
  -50.9293   59.8774   63.6612 C   0  0  0  0  0  0  0  0  0  0  0  0
  -50.9910   58.9182   62.5173 C   0  0  0  0  0  0  0  0  0  0  0  0
  -50.1814   59.4549   61.3356 C   0  0  0  0  0  0  0  0  0  0  0  0
  -49.7870   58.4202   60.2920 C   0  0  0  0  0  0  0  0  0  0  0  0
  -49.1569   57.1499   60.8503 C   0  0  0  0  0  0  0  0  0  0  0  0
  -48.9694   56.0535   59.8068 C   0  0  0  0  0  0  0  0  0  0  0  0
  -47.5612   55.9844   59.2374 C   0  0  0  0  0  0  0  0  0  0  0  0
  -47.4766   55.8198   57.7273 C   0  0  0  0  0  0  0  0  0  0  0  0
  -47.5138   57.1278   56.9986 C   0  0  0  0  0  0  0  0  0  0  0  0
  -42.7434   58.3229   64.5682 O   0  0  0  0  0  0  0  0  0  0  0  0
  -42.4671   57.9536   63.1992 C   0  0  0  0  0  0  0  0  0  0  0  0
  -42.0277   59.1459   62.3761 C   0  0  0  0  0  0  0  0  0  0  0  0
  -42.4016   60.3763   63.0106 O   0  0  0  0  0  0  0  0  0  0  0  0
  -41.9446   60.4525   63.8628 H   0  0  0  0  0  0  0  0  0  0  0  0
  -40.5408   59.1499   62.1084 C   0  0  0  0  0  0  0  0  0  0  0  0
  -39.8282   59.9977   63.0416 O   0  0  0  0  0  0  0  0  0  0  0  0
  -39.4188   59.8041   64.5813 P   0  0  0  0  0  0  0  0  0  0  0  0
  -39.4403   58.3093   64.8967 O   0  0  0  0  0  0  0  0  0  0  0  0
  -40.4272   60.4781   65.4281 O   0  0  0  0  0  0  0  0  0  0  0  0
  -41.3063   60.1175   65.2331 H   0  0  0  0  0  0  0  0  0  0  0  0
  -37.9105   60.3873   64.8811 O   0  0  0  0  0  0  0  0  0  0  0  0
  -36.8447   60.5380   63.9042 C   0  0  0  0  0  0  0  0  0  0  0  0
  -35.6668   59.6733   64.2800 C   0  0  0  0  0  0  0  0  0  0  0  0
  -35.6199   58.2879   63.6628 N   0  0  0  0  0  0  0  0  0  0  0  0
  -34.2252   57.9471   63.2460 C   0  0  0  0  0  0  0  0  0  0  0  0
  -36.5041   58.2713   62.4593 C   0  0  0  0  0  0  0  0  0  0  0  0
  -36.0978   57.2571   64.6456 C   0  0  0  0  0  0  0  0  0  0  0  0
 34 33  1  0  0  0
 34 35  1  0  0  0
 34 36  1  0  0  0
 34 37  1  0  0  0
 22 23  1  0  0  0
 22 25  1  0  0  0
 22 21  1  0  0  0
 23 24  1  0  0  0
 27 26  1  0  0  0
 27 28  2  0  0  0
 27 31  1  0  0  0
 27 29  1  0  0  0
 25 26  1  0  0  0
 32 33  1  0  0  0
 32 31  1  0  0  0
 29 30  1  0  0  0
 20 21  1  0  0  0
 20  2  1  0  0  0
  1  2  2  0  0  0
  2  3  1  0  0  0
  3  4  1  0  0  0
  4  5  1  0  0  0
  5  6  1  0  0  0
  6  7  1  0  0  0
  7  8  1  0  0  0
  8  9  1  0  0  0
  9 10  1  0  0  0
 10 11  2  0  0  0
 11 12  1  0  0  0
 12 13  1  0  0  0
 13 14  1  0  0  0
 14 15  1  0  0  0
 15 16  1  0  0  0
 16 17  1  0  0  0
 17 18  1  0  0  0
 18 19  1  0  0  0
M  CHG 1  28  -1
M  END
> <minimizedAffinity>
-7.68916

> <CNNscore>
0.8125289679

> <CNNaffinity>
6.9496483803

> <CNN_VS>
5.6467905045

> <CNNaffinity_variance>
0.2989317179

$$$$
/media/chris/experiments/cd1a-new-docking/inputs/ligands/4x6e_ligand.pdb


 37 36  0  0  0  0  0  0  0  0999 V2000
  -43.1685   60.1053   65.0957 O   0  0  0  0  0  0  0  0  0  0  0  0
  -42.6096   59.3296   65.8308 C   0  0  0  0  0  0  0  0  0  0  0  0
  -43.0388   57.9180   66.0895 C   0  0  0  0  0  0  0  0  0  0  0  0
  -44.0106   57.3857   65.0432 C   0  0  0  0  0  0  0  0  0  0  0  0
  -45.4748   57.5176   65.4255 C   0  0  0  0  0  0  0  0  0  0  0  0
  -45.7089   57.5303   66.9259 C   0  0  0  0  0  0  0  0  0  0  0  0
  -46.3743   58.8070   67.4105 C   0  0  0  0  0  0  0  0  0  0  0  0
  -46.8522   59.6729   66.2663 C   0  0  0  0  0  0  0  0  0  0  0  0
  -48.3534   59.8687   66.2024 C   0  0  0  0  0  0  0  0  0  0  0  0
  -49.1056   58.6485   65.8317 C   0  0  0  0  0  0  0  0  0  0  0  0
  -50.1306   58.5897   65.0067 C   0  0  0  0  0  0  0  0  0  0  0  0
  -50.7345   59.7177   64.2351 C   0  0  0  0  0  0  0  0  0  0  0  0
  -51.1775   59.2332   62.8536 C   0  0  0  0  0  0  0  0  0  0  0  0
  -50.2702   58.1989   62.2036 C   0  0  0  0  0  0  0  0  0  0  0  0
  -50.7450   57.6854   60.8496 C   0  0  0  0  0  0  0  0  0  0  0  0
  -49.7262   56.7967   60.1437 C   0  0  0  0  0  0  0  0  0  0  0  0
  -49.0544   57.4619   58.9529 C   0  0  0  0  0  0  0  0  0  0  0  0
  -48.0635   56.5918   58.1941 C   0  0  0  0  0  0  0  0  0  0  0  0
  -47.5136   57.2672   56.9755 C   0  0  0  0  0  0  0  0  0  0  0  0
  -41.5027   59.6151   66.5229 O   0  0  0  0  0  0  0  0  0  0  0  0
  -40.4313   60.2936   65.8312 C   0  0  0  0  0  0  0  0  0  0  0  0
  -39.0994   59.6093   66.0547 C   0  0  0  0  0  0  0  0  0  0  0  0
  -38.8563   58.6143   65.0510 O   0  0  0  0  0  0  0  0  0  0  0  0
  -38.7995   59.0397   64.1812 H   0  0  0  0  0  0  0  0  0  0  0  0
  -37.9449   60.5832   66.0872 C   0  0  0  0  0  0  0  0  0  0  0  0
  -38.0147   61.5372   64.9997 O   0  0  0  0  0  0  0  0  0  0  0  0
  -37.6672   61.4213   63.4371 P   0  0  0  0  0  0  0  0  0  0  0  0
  -36.4017   60.5779   63.2908 O   0  0  0  0  0  0  0  0  0  0  0  0
  -37.3930   62.7763   62.9109 O   0  0  0  0  0  0  0  0  0  0  0  0
  -36.6725   63.1808   63.4190 H   0  0  0  0  0  0  0  0  0  0  0  0
  -38.8855   60.6983   62.6015 O   0  0  0  0  0  0  0  0  0  0  0  0
  -38.7502   59.9875   61.3408 C   0  0  0  0  0  0  0  0  0  0  0  0
  -39.2599   58.5745   61.4817 C   0  0  0  0  0  0  0  0  0  0  0  0
  -40.7398   58.3597   61.2238 N   0  0  0  0  0  0  0  0  0  0  0  0
  -41.3388   59.5659   60.5745 C   0  0  0  0  0  0  0  0  0  0  0  0
  -41.4225   58.1223   62.5306 C   0  0  0  0  0  0  0  0  0  0  0  0
  -40.9515   57.1720   60.3287 C   0  0  0  0  0  0  0  0  0  0  0  0
 34 33  1  0  0  0
 34 35  1  0  0  0
 34 36  1  0  0  0
 34 37  1  0  0  0
 22 23  1  0  0  0
 22 25  1  0  0  0
 22 21  1  0  0  0
 23 24  1  0  0  0
 27 26  1  0  0  0
 27 28  2  0  0  0
 27 31  1  0  0  0
 27 29  1  0  0  0
 25 26  1  0  0  0
 32 33  1  0  0  0
 32 31  1  0  0  0
 29 30  1  0  0  0
 20 21  1  0  0  0
 20  2  1  0  0  0
  1  2  2  0  0  0
  2  3  1  0  0  0
  3  4  1  0  0  0
  4  5  1  0  0  0
  5  6  1  0  0  0
  6  7  1  0  0  0
  7  8  1  0  0  0
  8  9  1  0  0  0
  9 10  1  0  0  0
 10 11  2  0  0  0
 11 12  1  0  0  0
 12 13  1  0  0  0
 13 14  1  0  0  0
 14 15  1  0  0  0
 15 16  1  0  0  0
 16 17  1  0  0  0
 17 18  1  0  0  0
 18 19  1  0  0  0
M  CHG 1  28  -1
M  END
> <minimizedAffinity>
-7.95643

> <CNNscore>
0.8103069067

> <CNNaffinity>
7.2762389183

> <CNN_VS>
5.8959865570

> <CNNaffinity_variance>
0.2475530356

$$$$
/media/chris/experiments/cd1a-new-docking/inputs/ligands/4x6e_ligand.pdb


 37 36  0  0  0  0  0  0  0  0999 V2000
  -42.2218   57.9528   66.9030 O   0  0  0  0  0  0  0  0  0  0  0  0
  -42.7860   58.5778   66.0395 C   0  0  0  0  0  0  0  0  0  0  0  0
  -44.2526   58.5143   65.7414 C   0  0  0  0  0  0  0  0  0  0  0  0
  -44.9762   57.4232   66.5215 C   0  0  0  0  0  0  0  0  0  0  0  0
  -46.4014   57.7748   66.9124 C   0  0  0  0  0  0  0  0  0  0  0  0
  -47.4498   56.9851   66.1486 C   0  0  0  0  0  0  0  0  0  0  0  0
  -48.4138   57.8713   65.3786 C   0  0  0  0  0  0  0  0  0  0  0  0
  -47.8272   59.2338   65.0837 C   0  0  0  0  0  0  0  0  0  0  0  0
  -48.7290   60.1543   64.2866 C   0  0  0  0  0  0  0  0  0  0  0  0
  -50.1537   60.0970   64.6858 C   0  0  0  0  0  0  0  0  0  0  0  0
  -51.1762   59.8848   63.8832 C   0  0  0  0  0  0  0  0  0  0  0  0
  -51.1305   59.6162   62.4141 C   0  0  0  0  0  0  0  0  0  0  0  0
  -50.9678   58.1171   62.1576 C   0  0  0  0  0  0  0  0  0  0  0  0
  -49.6549   57.7056   61.5076 C   0  0  0  0  0  0  0  0  0  0  0  0
  -49.7869   56.7033   60.3673 C   0  0  0  0  0  0  0  0  0  0  0  0
  -48.5247   56.5736   59.5210 C   0  0  0  0  0  0  0  0  0  0  0  0
  -48.5251   57.4546   58.2818 C   0  0  0  0  0  0  0  0  0  0  0  0
  -48.1639   56.7510   56.9822 C   0  0  0  0  0  0  0  0  0  0  0  0
  -47.0292   55.7862   57.1413 C   0  0  0  0  0  0  0  0  0  0  0  0
  -42.1798   59.4401   65.2182 O   0  0  0  0  0  0  0  0  0  0  0  0
  -41.1477   60.2860   65.7713 C   0  0  0  0  0  0  0  0  0  0  0  0
  -39.7901   59.9720   65.1792 C   0  0  0  0  0  0  0  0  0  0  0  0
  -39.4513   58.5917   65.3699 O   0  0  0  0  0  0  0  0  0  0  0  0
  -40.0886   58.0341   64.8969 H   0  0  0  0  0  0  0  0  0  0  0  0
  -39.7055   60.3120   63.7096 C   0  0  0  0  0  0  0  0  0  0  0  0
  -38.9789   61.5441   63.4831 O   0  0  0  0  0  0  0  0  0  0  0  0
  -37.4484   61.9573   63.7340 P   0  0  0  0  0  0  0  0  0  0  0  0
  -36.5798   60.7165   63.5332 O   0  0  0  0  0  0  0  0  0  0  0  0
  -37.3037   62.4114   65.1344 O   0  0  0  0  0  0  0  0  0  0  0  0
  -37.5980   61.7082   65.7343 H   0  0  0  0  0  0  0  0  0  0  0  0
  -36.9593   63.1227   62.6815 O   0  0  0  0  0  0  0  0  0  0  0  0
  -36.0603   64.2237   62.9858 C   0  0  0  0  0  0  0  0  0  0  0  0
  -34.6482   63.7159   63.1423 C   0  0  0  0  0  0  0  0  0  0  0  0
  -33.8327   64.3200   64.2704 N   0  0  0  0  0  0  0  0  0  0  0  0
  -33.5292   65.7562   63.9865 C   0  0  0  0  0  0  0  0  0  0  0  0
  -32.5487   63.5664   64.3877 C   0  0  0  0  0  0  0  0  0  0  0  0
  -34.5827   64.2305   65.5689 C   0  0  0  0  0  0  0  0  0  0  0  0
 34 33  1  0  0  0
 34 35  1  0  0  0
 34 36  1  0  0  0
 34 37  1  0  0  0
 22 23  1  0  0  0
 22 25  1  0  0  0
 22 21  1  0  0  0
 23 24  1  0  0  0
 27 26  1  0  0  0
 27 28  2  0  0  0
 27 31  1  0  0  0
 27 29  1  0  0  0
 25 26  1  0  0  0
 32 33  1  0  0  0
 32 31  1  0  0  0
 29 30  1  0  0  0
 20 21  1  0  0  0
 20  2  1  0  0  0
  1  2  2  0  0  0
  2  3  1  0  0  0
  3  4  1  0  0  0
  4  5  1  0  0  0
  5  6  1  0  0  0
  6  7  1  0  0  0
  7  8  1  0  0  0
  8  9  1  0  0  0
  9 10  1  0  0  0
 10 11  2  0  0  0
 11 12  1  0  0  0
 12 13  1  0  0  0
 13 14  1  0  0  0
 14 15  1  0  0  0
 15 16  1  0  0  0
 16 17  1  0  0  0
 17 18  1  0  0  0
 18 19  1  0  0  0
M  CHG 1  28  -1
M  END
> <minimizedAffinity>
-7.80400

> <CNNscore>
0.8029850721

> <CNNaffinity>
6.3910160065

> <CNN_VS>
5.1318902969

> <CNNaffinity_variance>
0.2054244727

$$$$
/media/chris/experiments/cd1a-new-docking/inputs/ligands/4x6e_ligand.pdb


 37 36  0  0  0  0  0  0  0  0999 V2000
  -42.5848   59.2699   67.6427 O   0  0  0  0  0  0  0  0  0  0  0  0
  -42.5143   58.8676   66.5079 C   0  0  0  0  0  0  0  0  0  0  0  0
  -43.6469   58.8345   65.5282 C   0  0  0  0  0  0  0  0  0  0  0  0
  -44.4214   57.5221   65.5516 C   0  0  0  0  0  0  0  0  0  0  0  0
  -45.4920   57.4473   66.6267 C   0  0  0  0  0  0  0  0  0  0  0  0
  -46.9019   57.3541   66.0702 C   0  0  0  0  0  0  0  0  0  0  0  0
  -47.7768   58.5281   66.4748 C   0  0  0  0  0  0  0  0  0  0  0  0
  -47.4228   59.7915   65.7225 C   0  0  0  0  0  0  0  0  0  0  0  0
  -47.6644   59.7292   64.2279 C   0  0  0  0  0  0  0  0  0  0  0  0
  -48.8514   60.4905   63.7767 C   0  0  0  0  0  0  0  0  0  0  0  0
  -49.9394   59.9822   63.2358 C   0  0  0  0  0  0  0  0  0  0  0  0
  -50.2380   58.5381   62.9948 C   0  0  0  0  0  0  0  0  0  0  0  0
  -50.9333   58.3624   61.6437 C   0  0  0  0  0  0  0  0  0  0  0  0
  -50.5189   57.1303   60.8526 C   0  0  0  0  0  0  0  0  0  0  0  0
  -49.0920   57.1577   60.3183 C   0  0  0  0  0  0  0  0  0  0  0  0
  -48.7250   55.9256   59.4977 C   0  0  0  0  0  0  0  0  0  0  0  0
  -47.2744   55.9026   59.0429 C   0  0  0  0  0  0  0  0  0  0  0  0
  -47.0647   55.8458   57.5371 C   0  0  0  0  0  0  0  0  0  0  0  0
  -47.8666   56.8746   56.8010 C   0  0  0  0  0  0  0  0  0  0  0  0
  -41.3970   58.3972   65.9456 O   0  0  0  0  0  0  0  0  0  0  0  0
  -41.1168   58.7791   64.5809 C   0  0  0  0  0  0  0  0  0  0  0  0
  -40.1641   59.9539   64.5132 C   0  0  0  0  0  0  0  0  0  0  0  0
  -40.8793   61.1964   64.4808 O   0  0  0  0  0  0  0  0  0  0  0  0
  -41.3814   61.3020   65.3040 H   0  0  0  0  0  0  0  0  0  0  0  0
  -39.1804   59.9698   65.6598 C   0  0  0  0  0  0  0  0  0  0  0  0
  -37.8118   60.0540   65.1936 O   0  0  0  0  0  0  0  0  0  0  0  0
  -36.9593   59.1503   64.1776 P   0  0  0  0  0  0  0  0  0  0  0  0
  -35.6996   58.6772   64.9013 O   0  0  0  0  0  0  0  0  0  0  0  0
  -36.5545   59.9856   63.0258 O   0  0  0  0  0  0  0  0  0  0  0  0
  -36.0544   60.7537   63.3433 H   0  0  0  0  0  0  0  0  0  0  0  0
  -37.8118   57.8339   63.6822 O   0  0  0  0  0  0  0  0  0  0  0  0
  -37.8933   57.3340   62.3196 C   0  0  0  0  0  0  0  0  0  0  0  0
  -39.3248   57.3494   61.8434 C   0  0  0  0  0  0  0  0  0  0  0  0
  -39.6043   58.1153   60.5636 N   0  0  0  0  0  0  0  0  0  0  0  0
  -38.3261   58.4531   59.8656 C   0  0  0  0  0  0  0  0  0  0  0  0
  -40.3172   59.3808   60.9107 C   0  0  0  0  0  0  0  0  0  0  0  0
  -40.4612   57.2993   59.6380 C   0  0  0  0  0  0  0  0  0  0  0  0
 34 33  1  0  0  0
 34 35  1  0  0  0
 34 36  1  0  0  0
 34 37  1  0  0  0
 22 23  1  0  0  0
 22 25  1  0  0  0
 22 21  1  0  0  0
 23 24  1  0  0  0
 27 26  1  0  0  0
 27 28  2  0  0  0
 27 31  1  0  0  0
 27 29  1  0  0  0
 25 26  1  0  0  0
 32 33  1  0  0  0
 32 31  1  0  0  0
 29 30  1  0  0  0
 20 21  1  0  0  0
 20  2  1  0  0  0
  1  2  2  0  0  0
  2  3  1  0  0  0
  3  4  1  0  0  0
  4  5  1  0  0  0
  5  6  1  0  0  0
  6  7  1  0  0  0
  7  8  1  0  0  0
  8  9  1  0  0  0
  9 10  1  0  0  0
 10 11  2  0  0  0
 11 12  1  0  0  0
 12 13  1  0  0  0
 13 14  1  0  0  0
 14 15  1  0  0  0
 15 16  1  0  0  0
 16 17  1  0  0  0
 17 18  1  0  0  0
 18 19  1  0  0  0
M  CHG 1  28  -1
M  END
> <minimizedAffinity>
-7.54597

> <CNNscore>
0.7630924582

> <CNNaffinity>
7.0012435913

> <CNN_VS>
5.3425960541

> <CNNaffinity_variance>
0.2040169239

$$$$
/media/chris/experiments/cd1a-new-docking/inputs/ligands/4x6e_ligand.pdb


 37 36  0  0  0  0  0  0  0  0999 V2000
  -40.2094   58.6183   65.5292 O   0  0  0  0  0  0  0  0  0  0  0  0
  -40.5369   59.6808   65.9966 C   0  0  0  0  0  0  0  0  0  0  0  0
  -41.9113   60.0279   66.4807 C   0  0  0  0  0  0  0  0  0  0  0  0
  -42.8473   58.8267   66.5396 C   0  0  0  0  0  0  0  0  0  0  0  0
  -44.3110   59.1837   66.7333 C   0  0  0  0  0  0  0  0  0  0  0  0
  -44.9569   59.7794   65.4947 C   0  0  0  0  0  0  0  0  0  0  0  0
  -46.0452   58.8949   64.9110 C   0  0  0  0  0  0  0  0  0  0  0  0
  -46.9905   58.3759   65.9713 C   0  0  0  0  0  0  0  0  0  0  0  0
  -48.2742   59.1671   66.1197 C   0  0  0  0  0  0  0  0  0  0  0  0
  -49.4952   58.4074   65.7671 C   0  0  0  0  0  0  0  0  0  0  0  0
  -50.2196   58.5650   64.6785 C   0  0  0  0  0  0  0  0  0  0  0  0
  -49.9562   59.5043   63.5468 C   0  0  0  0  0  0  0  0  0  0  0  0
  -50.8413   59.1493   62.3508 C   0  0  0  0  0  0  0  0  0  0  0  0
  -50.1076   58.9549   61.0319 C   0  0  0  0  0  0  0  0  0  0  0  0
  -50.2262   57.5606   60.4281 C   0  0  0  0  0  0  0  0  0  0  0  0
  -49.4380   57.3882   59.1339 C   0  0  0  0  0  0  0  0  0  0  0  0
  -48.2544   56.4421   59.2592 C   0  0  0  0  0  0  0  0  0  0  0  0
  -47.6491   55.9781   57.9428 C   0  0  0  0  0  0  0  0  0  0  0  0
  -47.5308   57.0826   56.9380 C   0  0  0  0  0  0  0  0  0  0  0  0
  -39.7077   60.7150   66.1652 O   0  0  0  0  0  0  0  0  0  0  0  0
  -38.2886   60.4457   66.1809 C   0  0  0  0  0  0  0  0  0  0  0  0
  -37.5447   61.3074   65.1827 C   0  0  0  0  0  0  0  0  0  0  0  0
  -37.2462   62.5963   65.7360 O   0  0  0  0  0  0  0  0  0  0  0  0
  -36.6547   62.4921   66.4976 H   0  0  0  0  0  0  0  0  0  0  0  0
  -36.2685   60.6615   64.6962 C   0  0  0  0  0  0  0  0  0  0  0  0
  -36.4465   60.0196   63.4101 O   0  0  0  0  0  0  0  0  0  0  0  0
  -36.5395   58.4772   62.9763 P   0  0  0  0  0  0  0  0  0  0  0  0
  -37.2483   57.7097   64.0911 O   0  0  0  0  0  0  0  0  0  0  0  0
  -35.1681   57.9413   62.8345 O   0  0  0  0  0  0  0  0  0  0  0  0
  -34.6865   58.0606   63.6681 H   0  0  0  0  0  0  0  0  0  0  0  0
  -37.3923   58.2945   61.5819 O   0  0  0  0  0  0  0  0  0  0  0  0
  -38.4511   59.1709   61.1087 C   0  0  0  0  0  0  0  0  0  0  0  0
  -39.6728   59.0319   61.9829 C   0  0  0  0  0  0  0  0  0  0  0  0
  -40.6381   57.9171   61.6250 N   0  0  0  0  0  0  0  0  0  0  0  0
  -40.5146   57.5617   60.1780 C   0  0  0  0  0  0  0  0  0  0  0  0
  -42.0302   58.3870   61.8924 C   0  0  0  0  0  0  0  0  0  0  0  0
  -40.3588   56.6934   62.4503 C   0  0  0  0  0  0  0  0  0  0  0  0
 34 33  1  0  0  0
 34 35  1  0  0  0
 34 36  1  0  0  0
 34 37  1  0  0  0
 22 23  1  0  0  0
 22 25  1  0  0  0
 22 21  1  0  0  0
 23 24  1  0  0  0
 27 26  1  0  0  0
 27 28  2  0  0  0
 27 31  1  0  0  0
 27 29  1  0  0  0
 25 26  1  0  0  0
 32 33  1  0  0  0
 32 31  1  0  0  0
 29 30  1  0  0  0
 20 21  1  0  0  0
 20  2  1  0  0  0
  1  2  2  0  0  0
  2  3  1  0  0  0
  3  4  1  0  0  0
  4  5  1  0  0  0
  5  6  1  0  0  0
  6  7  1  0  0  0
  7  8  1  0  0  0
  8  9  1  0  0  0
  9 10  1  0  0  0
 10 11  2  0  0  0
 11 12  1  0  0  0
 12 13  1  0  0  0
 13 14  1  0  0  0
 14 15  1  0  0  0
 15 16  1  0  0  0
 16 17  1  0  0  0
 17 18  1  0  0  0
 18 19  1  0  0  0
M  CHG 1  28  -1
M  END
> <minimizedAffinity>
-8.04228

> <CNNscore>
0.7519488931

> <CNNaffinity>
7.1684770584

> <CNN_VS>
5.3903284073

> <CNNaffinity_variance>
0.3667513728

$$$$
/media/chris/experiments/cd1a-new-docking/inputs/ligands/4x6e_ligand.pdb


 37 36  0  0  0  0  0  0  0  0999 V2000
  -41.0464   60.5317   66.0301 O   0  0  0  0  0  0  0  0  0  0  0  0
  -41.9772   59.7652   66.0065 C   0  0  0  0  0  0  0  0  0  0  0  0
  -43.1615   59.8116   66.9225 C   0  0  0  0  0  0  0  0  0  0  0  0
  -44.4706   59.4550   66.2282 C   0  0  0  0  0  0  0  0  0  0  0  0
  -45.5819   59.0271   67.1713 C   0  0  0  0  0  0  0  0  0  0  0  0
  -46.9682   59.1375   66.5613 C   0  0  0  0  0  0  0  0  0  0  0  0
  -47.4643   57.8258   65.9776 C   0  0  0  0  0  0  0  0  0  0  0  0
  -48.5213   58.0353   64.9164 C   0  0  0  0  0  0  0  0  0  0  0  0
  -49.2421   59.3660   64.9923 C   0  0  0  0  0  0  0  0  0  0  0  0
  -50.5976   59.3526   64.3968 C   0  0  0  0  0  0  0  0  0  0  0  0
  -50.9017   59.6622   63.1533 C   0  0  0  0  0  0  0  0  0  0  0  0
  -49.9573   60.0525   62.0632 C   0  0  0  0  0  0  0  0  0  0  0  0
  -50.1842   59.1755   60.8307 C   0  0  0  0  0  0  0  0  0  0  0  0
  -50.2635   57.6800   61.1004 C   0  0  0  0  0  0  0  0  0  0  0  0
  -49.0235   56.8874   60.7047 C   0  0  0  0  0  0  0  0  0  0  0  0
  -48.7672   56.8676   59.2013 C   0  0  0  0  0  0  0  0  0  0  0  0
  -47.7870   55.7917   58.7614 C   0  0  0  0  0  0  0  0  0  0  0  0
  -47.0513   56.0735   57.4599 C   0  0  0  0  0  0  0  0  0  0  0  0
  -47.3911   57.4121   56.8801 C   0  0  0  0  0  0  0  0  0  0  0  0
  -42.0968   58.7550   65.1400 O   0  0  0  0  0  0  0  0  0  0  0  0
  -40.8857   58.1928   64.5886 C   0  0  0  0  0  0  0  0  0  0  0  0
  -40.6829   58.6070   63.1465 C   0  0  0  0  0  0  0  0  0  0  0  0
  -41.1799   59.9323   62.9160 O   0  0  0  0  0  0  0  0  0  0  0  0
  -40.6764   60.5642   63.4526 H   0  0  0  0  0  0  0  0  0  0  0  0
  -39.2358   58.5315   62.7192 C   0  0  0  0  0  0  0  0  0  0  0  0
  -38.3376   58.9054   63.7920 O   0  0  0  0  0  0  0  0  0  0  0  0
  -37.8319   60.3304   64.3302 P   0  0  0  0  0  0  0  0  0  0  0  0
  -37.6746   60.2393   65.8472 O   0  0  0  0  0  0  0  0  0  0  0  0
  -38.8633   61.3457   64.0242 O   0  0  0  0  0  0  0  0  0  0  0  0
  -39.7067   61.0801   64.4229 H   0  0  0  0  0  0  0  0  0  0  0  0
  -36.3827   60.7430   63.6709 O   0  0  0  0  0  0  0  0  0  0  0  0
  -35.1244   60.8683   64.3878 C   0  0  0  0  0  0  0  0  0  0  0  0
  -34.5276   62.2349   64.1588 C   0  0  0  0  0  0  0  0  0  0  0  0
  -35.0542   63.3586   65.0320 N   0  0  0  0  0  0  0  0  0  0  0  0
  -36.2804   63.9622   64.4259 C   0  0  0  0  0  0  0  0  0  0  0  0
  -33.9999   64.4103   65.1440 C   0  0  0  0  0  0  0  0  0  0  0  0
  -35.3931   62.8458   66.4027 C   0  0  0  0  0  0  0  0  0  0  0  0
 34 33  1  0  0  0
 34 35  1  0  0  0
 34 36  1  0  0  0
 34 37  1  0  0  0
 22 23  1  0  0  0
 22 25  1  0  0  0
 22 21  1  0  0  0
 23 24  1  0  0  0
 27 26  1  0  0  0
 27 28  2  0  0  0
 27 31  1  0  0  0
 27 29  1  0  0  0
 25 26  1  0  0  0
 32 33  1  0  0  0
 32 31  1  0  0  0
 29 30  1  0  0  0
 20 21  1  0  0  0
 20  2  1  0  0  0
  1  2  2  0  0  0
  2  3  1  0  0  0
  3  4  1  0  0  0
  4  5  1  0  0  0
  5  6  1  0  0  0
  6  7  1  0  0  0
  7  8  1  0  0  0
  8  9  1  0  0  0
  9 10  1  0  0  0
 10 11  2  0  0  0
 11 12  1  0  0  0
 12 13  1  0  0  0
 13 14  1  0  0  0
 14 15  1  0  0  0
 15 16  1  0  0  0
 16 17  1  0  0  0
 17 18  1  0  0  0
 18 19  1  0  0  0
M  CHG 1  28  -1
M  END
> <minimizedAffinity>
-7.60896

> <CNNscore>
0.7286082506

> <CNNaffinity>
6.6044678688

> <CNN_VS>
4.8120698929

> <CNNaffinity_variance>
0.3382010758

$$$$
/media/chris/experiments/cd1a-new-docking/inputs/ligands/4x6e_ligand.pdb


 37 36  0  0  0  0  0  0  0  0999 V2000
  -42.9349   56.9745   64.5456 O   0  0  0  0  0  0  0  0  0  0  0  0
  -43.2800   57.9213   65.2082 C   0  0  0  0  0  0  0  0  0  0  0  0
  -43.9580   57.8447   66.5417 C   0  0  0  0  0  0  0  0  0  0  0  0
  -44.9021   59.0125   66.8021 C   0  0  0  0  0  0  0  0  0  0  0  0
  -46.3066   58.6018   67.2100 C   0  0  0  0  0  0  0  0  0  0  0  0
  -46.6808   57.2002   66.7612 C   0  0  0  0  0  0  0  0  0  0  0  0
  -47.9993   57.1518   66.0086 C   0  0  0  0  0  0  0  0  0  0  0  0
  -48.7353   58.4722   66.0584 C   0  0  0  0  0  0  0  0  0  0  0  0
  -50.1911   58.4036   65.6438 C   0  0  0  0  0  0  0  0  0  0  0  0
  -50.7716   59.7110   65.2616 C   0  0  0  0  0  0  0  0  0  0  0  0
  -51.1147   60.0816   64.0451 C   0  0  0  0  0  0  0  0  0  0  0  0
  -51.0361   59.2647   62.7965 C   0  0  0  0  0  0  0  0  0  0  0  0
  -49.8422   59.7097   61.9502 C   0  0  0  0  0  0  0  0  0  0  0  0
  -49.9348   59.3796   60.4677 C   0  0  0  0  0  0  0  0  0  0  0  0
  -50.2770   57.9287   60.1509 C   0  0  0  0  0  0  0  0  0  0  0  0
  -49.5050   57.3664   58.9618 C   0  0  0  0  0  0  0  0  0  0  0  0
  -48.3439   56.4671   59.3554 C   0  0  0  0  0  0  0  0  0  0  0  0
  -47.4281   56.0490   58.2148 C   0  0  0  0  0  0  0  0  0  0  0  0
  -47.5578   56.9337   57.0132 C   0  0  0  0  0  0  0  0  0  0  0  0
  -43.0948   59.1957   64.8514 O   0  0  0  0  0  0  0  0  0  0  0  0
  -43.6482   59.6295   63.5895 C   0  0  0  0  0  0  0  0  0  0  0  0
  -42.7215   60.5885   62.8726 C   0  0  0  0  0  0  0  0  0  0  0  0
  -41.6831   61.0520   63.7463 O   0  0  0  0  0  0  0  0  0  0  0  0
  -41.1346   60.3015   64.0232 H   0  0  0  0  0  0  0  0  0  0  0  0
  -42.1034   59.9818   61.6348 C   0  0  0  0  0  0  0  0  0  0  0  0
  -40.7505   59.5256   61.8770 O   0  0  0  0  0  0  0  0  0  0  0  0
  -40.1646   58.1911   62.5491 P   0  0  0  0  0  0  0  0  0  0  0  0
  -38.8073   57.8929   61.9141 O   0  0  0  0  0  0  0  0  0  0  0  0
  -41.0805   57.0685   62.2504 O   0  0  0  0  0  0  0  0  0  0  0  0
  -41.1833   56.9820   61.2897 H   0  0  0  0  0  0  0  0  0  0  0  0
  -39.9623   58.3729   64.1712 O   0  0  0  0  0  0  0  0  0  0  0  0
  -38.7082   58.2414   64.8943 C   0  0  0  0  0  0  0  0  0  0  0  0
  -38.4082   59.5104   65.6531 C   0  0  0  0  0  0  0  0  0  0  0  0
  -37.3690   60.4335   65.0445 N   0  0  0  0  0  0  0  0  0  0  0  0
  -36.2060   59.6468   64.5311 C   0  0  0  0  0  0  0  0  0  0  0  0
  -36.8902   61.3751   66.1002 C   0  0  0  0  0  0  0  0  0  0  0  0
  -37.9623   61.2186   63.9094 C   0  0  0  0  0  0  0  0  0  0  0  0
 34 33  1  0  0  0
 34 35  1  0  0  0
 34 36  1  0  0  0
 34 37  1  0  0  0
 22 23  1  0  0  0
 22 25  1  0  0  0
 22 21  1  0  0  0
 23 24  1  0  0  0
 27 26  1  0  0  0
 27 28  2  0  0  0
 27 31  1  0  0  0
 27 29  1  0  0  0
 25 26  1  0  0  0
 32 33  1  0  0  0
 32 31  1  0  0  0
 29 30  1  0  0  0
 20 21  1  0  0  0
 20  2  1  0  0  0
  1  2  2  0  0  0
  2  3  1  0  0  0
  3  4  1  0  0  0
  4  5  1  0  0  0
  5  6  1  0  0  0
  6  7  1  0  0  0
  7  8  1  0  0  0
  8  9  1  0  0  0
  9 10  1  0  0  0
 10 11  2  0  0  0
 11 12  1  0  0  0
 12 13  1  0  0  0
 13 14  1  0  0  0
 14 15  1  0  0  0
 15 16  1  0  0  0
 16 17  1  0  0  0
 17 18  1  0  0  0
 18 19  1  0  0  0
M  CHG 1  28  -1
M  END
> <minimizedAffinity>
-7.67805

> <CNNscore>
0.6562609076

> <CNNaffinity>
6.8986411095

> <CNN_VS>
4.5273084641

> <CNNaffinity_variance>
0.2683558464

$$$$
/media/chris/experiments/cd1a-new-docking/inputs/ligands/4x6e_ligand.pdb


 37 36  0  0  0  0  0  0  0  0999 V2000
  -41.1415   57.5683   64.8355 O   0  0  0  0  0  0  0  0  0  0  0  0
  -42.0518   58.3042   64.5452 C   0  0  0  0  0  0  0  0  0  0  0  0
  -43.4937   57.9074   64.4604 C   0  0  0  0  0  0  0  0  0  0  0  0
  -43.9935   57.1936   65.7107 C   0  0  0  0  0  0  0  0  0  0  0  0
  -45.4477   57.4719   66.0502 C   0  0  0  0  0  0  0  0  0  0  0  0
  -45.6641   58.8137   66.7276 C   0  0  0  0  0  0  0  0  0  0  0  0
  -46.7470   59.6452   66.0619 C   0  0  0  0  0  0  0  0  0  0  0  0
  -46.6337   59.6304   64.5538 C   0  0  0  0  0  0  0  0  0  0  0  0
  -47.8221   59.0259   63.8338 C   0  0  0  0  0  0  0  0  0  0  0  0
  -48.9253   58.6138   64.7312 C   0  0  0  0  0  0  0  0  0  0  0  0
  -50.2130   58.7496   64.4904 C   0  0  0  0  0  0  0  0  0  0  0  0
  -50.8473   59.3050   63.2569 C   0  0  0  0  0  0  0  0  0  0  0  0
  -51.0871   58.1883   62.2394 C   0  0  0  0  0  0  0  0  0  0  0  0
  -50.3677   58.3532   60.9087 C   0  0  0  0  0  0  0  0  0  0  0  0
  -49.8829   57.0557   60.2732 C   0  0  0  0  0  0  0  0  0  0  0  0
  -48.6288   57.2256   59.4221 C   0  0  0  0  0  0  0  0  0  0  0  0
  -47.9416   55.9143   59.0757 C   0  0  0  0  0  0  0  0  0  0  0  0
  -47.0965   55.9359   57.8108 C   0  0  0  0  0  0  0  0  0  0  0  0
  -47.6207   56.8876   56.7797 C   0  0  0  0  0  0  0  0  0  0  0  0
  -41.9079   59.6027   64.2645 O   0  0  0  0  0  0  0  0  0  0  0  0
  -42.7599   60.1705   63.2455 C   0  0  0  0  0  0  0  0  0  0  0  0
  -41.9538   60.8088   62.1342 C   0  0  0  0  0  0  0  0  0  0  0  0
  -40.5609   60.8597   62.4715 O   0  0  0  0  0  0  0  0  0  0  0  0
  -40.2190   59.9574   62.5702 H   0  0  0  0  0  0  0  0  0  0  0  0
  -42.1250   60.0987   60.8117 C   0  0  0  0  0  0  0  0  0  0  0  0
  -42.0568   58.6597   60.9606 O   0  0  0  0  0  0  0  0  0  0  0  0
  -40.8205   57.6392   61.0389 P   0  0  0  0  0  0  0  0  0  0  0  0
  -40.4649   57.2100   59.6164 O   0  0  0  0  0  0  0  0  0  0  0  0
  -41.2413   56.4426   61.8001 O   0  0  0  0  0  0  0  0  0  0  0  0
  -42.0188   56.0467   61.3763 H   0  0  0  0  0  0  0  0  0  0  0  0
  -39.5019   58.3427   61.7256 O   0  0  0  0  0  0  0  0  0  0  0  0
  -38.1616   57.7818   61.7690 C   0  0  0  0  0  0  0  0  0  0  0  0
  -37.8826   57.2030   63.1341 C   0  0  0  0  0  0  0  0  0  0  0  0
  -37.0139   58.0363   64.0581 N   0  0  0  0  0  0  0  0  0  0  0  0
  -37.7936   58.4746   65.2560 C   0  0  0  0  0  0  0  0  0  0  0  0
  -36.5472   59.2441   63.3139 C   0  0  0  0  0  0  0  0  0  0  0  0
  -35.8232   57.2442   64.5178 C   0  0  0  0  0  0  0  0  0  0  0  0
 34 33  1  0  0  0
 34 35  1  0  0  0
 34 36  1  0  0  0
 34 37  1  0  0  0
 22 23  1  0  0  0
 22 25  1  0  0  0
 22 21  1  0  0  0
 23 24  1  0  0  0
 27 26  1  0  0  0
 27 28  2  0  0  0
 27 31  1  0  0  0
 27 29  1  0  0  0
 25 26  1  0  0  0
 32 33  1  0  0  0
 32 31  1  0  0  0
 29 30  1  0  0  0
 20 21  1  0  0  0
 20  2  1  0  0  0
  1  2  2  0  0  0
  2  3  1  0  0  0
  3  4  1  0  0  0
  4  5  1  0  0  0
  5  6  1  0  0  0
  6  7  1  0  0  0
  7  8  1  0  0  0
  8  9  1  0  0  0
  9 10  1  0  0  0
 10 11  2  0  0  0
 11 12  1  0  0  0
 12 13  1  0  0  0
 13 14  1  0  0  0
 14 15  1  0  0  0
 15 16  1  0  0  0
 16 17  1  0  0  0
 17 18  1  0  0  0
 18 19  1  0  0  0
M  CHG 1  28  -1
M  END
> <minimizedAffinity>
-7.66558

> <CNNscore>
0.6519178152

> <CNNaffinity>
7.0077629089

> <CNN_VS>
4.5684852600

> <CNNaffinity_variance>
0.1433331668

$$$$
/media/chris/experiments/cd1a-new-docking/inputs/ligands/4x6e_ligand.pdb


 37 36  0  0  0  0  0  0  0  0999 V2000
  -41.9952   58.9201   61.4299 O   0  0  0  0  0  0  0  0  0  0  0  0
  -42.2254   59.2686   62.5613 C   0  0  0  0  0  0  0  0  0  0  0  0
  -43.4736   59.9590   63.0185 C   0  0  0  0  0  0  0  0  0  0  0  0
  -44.5337   58.9969   63.5410 C   0  0  0  0  0  0  0  0  0  0  0  0
  -45.5837   59.6449   64.4271 C   0  0  0  0  0  0  0  0  0  0  0  0
  -45.2044   59.6657   65.8975 C   0  0  0  0  0  0  0  0  0  0  0  0
  -46.3234   59.1833   66.8044 C   0  0  0  0  0  0  0  0  0  0  0  0
  -47.6915   59.4661   66.2249 C   0  0  0  0  0  0  0  0  0  0  0  0
  -48.4400   58.2420   65.7377 C   0  0  0  0  0  0  0  0  0  0  0  0
  -49.9093   58.4161   65.6819 C   0  0  0  0  0  0  0  0  0  0  0  0
  -50.5805   59.0469   64.7404 C   0  0  0  0  0  0  0  0  0  0  0  0
  -50.0250   59.6866   63.5098 C   0  0  0  0  0  0  0  0  0  0  0  0
  -50.7707   59.1840   62.2724 C   0  0  0  0  0  0  0  0  0  0  0  0
  -50.2000   57.9266   61.6332 C   0  0  0  0  0  0  0  0  0  0  0  0
  -50.5901   57.7107   60.1760 C   0  0  0  0  0  0  0  0  0  0  0  0
  -49.3946   57.5863   59.2372 C   0  0  0  0  0  0  0  0  0  0  0  0
  -48.5148   56.3795   59.5228 C   0  0  0  0  0  0  0  0  0  0  0  0
  -47.4754   56.0644   58.4575 C   0  0  0  0  0  0  0  0  0  0  0  0
  -47.6851   56.8425   57.1949 C   0  0  0  0  0  0  0  0  0  0  0  0
  -41.3947   59.0765   63.5903 O   0  0  0  0  0  0  0  0  0  0  0  0
  -39.9765   59.1953   63.3429 C   0  0  0  0  0  0  0  0  0  0  0  0
  -39.4914   60.6159   63.5397 C   0  0  0  0  0  0  0  0  0  0  0  0
  -39.4564   60.9606   64.9313 O   0  0  0  0  0  0  0  0  0  0  0  0
  -38.8190   60.3909   65.3895 H   0  0  0  0  0  0  0  0  0  0  0  0
  -38.1305   60.8542   62.9285 C   0  0  0  0  0  0  0  0  0  0  0  0
  -37.7777   62.2588   62.9310 O   0  0  0  0  0  0  0  0  0  0  0  0
  -36.6887   63.0976   63.7595 P   0  0  0  0  0  0  0  0  0  0  0  0
  -37.0039   62.9507   65.2473 O   0  0  0  0  0  0  0  0  0  0  0  0
  -36.8100   64.5252   63.3916 O   0  0  0  0  0  0  0  0  0  0  0  0
  -37.7156   64.8276   63.5632 H   0  0  0  0  0  0  0  0  0  0  0  0
  -35.1649   62.5437   63.4834 O   0  0  0  0  0  0  0  0  0  0  0  0
  -33.9872   63.3649   63.2558 C   0  0  0  0  0  0  0  0  0  0  0  0
  -33.1280   63.3993   64.4955 C   0  0  0  0  0  0  0  0  0  0  0  0
  -33.0443   64.7275   65.2244 N   0  0  0  0  0  0  0  0  0  0  0  0
  -33.5060   65.8407   64.3396 C   0  0  0  0  0  0  0  0  0  0  0  0
  -31.6223   64.9716   65.6099 C   0  0  0  0  0  0  0  0  0  0  0  0
  -33.8980   64.7047   66.4603 C   0  0  0  0  0  0  0  0  0  0  0  0
 34 33  1  0  0  0
 34 35  1  0  0  0
 34 36  1  0  0  0
 34 37  1  0  0  0
 22 23  1  0  0  0
 22 25  1  0  0  0
 22 21  1  0  0  0
 23 24  1  0  0  0
 27 26  1  0  0  0
 27 28  2  0  0  0
 27 31  1  0  0  0
 27 29  1  0  0  0
 25 26  1  0  0  0
 32 33  1  0  0  0
 32 31  1  0  0  0
 29 30  1  0  0  0
 20 21  1  0  0  0
 20  2  1  0  0  0
  1  2  2  0  0  0
  2  3  1  0  0  0
  3  4  1  0  0  0
  4  5  1  0  0  0
  5  6  1  0  0  0
  6  7  1  0  0  0
  7  8  1  0  0  0
  8  9  1  0  0  0
  9 10  1  0  0  0
 10 11  2  0  0  0
 11 12  1  0  0  0
 12 13  1  0  0  0
 13 14  1  0  0  0
 14 15  1  0  0  0
 15 16  1  0  0  0
 16 17  1  0  0  0
 17 18  1  0  0  0
 18 19  1  0  0  0
M  CHG 1  28  -1
M  END
> <minimizedAffinity>
-8.12745

> <CNNscore>
0.6177827120

> <CNNaffinity>
6.2570028305

> <CNN_VS>
3.8654682636

> <CNNaffinity_variance>
0.4824647307

$$$$
