/media/chris/experiments/cd1a-new-docking/inputs/ligands/4x6e_ligand.pdb


 37 36  0  0  0  0  0  0  0  0999 V2000
  -42.7233   56.6278   65.6781 O   0  0  0  0  0  0  0  0  0  0  0  0
  -43.0325   57.7799   65.5001 C   0  0  0  0  0  0  0  0  0  0  0  0
  -44.3269   58.2485   64.9095 C   0  0  0  0  0  0  0  0  0  0  0  0
  -44.8993   59.4723   65.6147 C   0  0  0  0  0  0  0  0  0  0  0  0
  -46.3192   59.2930   66.1241 C   0  0  0  0  0  0  0  0  0  0  0  0
  -47.0403   58.1109   65.5006 C   0  0  0  0  0  0  0  0  0  0  0  0
  -48.5061   58.0378   65.8925 C   0  0  0  0  0  0  0  0  0  0  0  0
  -49.1423   59.4068   65.9854 C   0  0  0  0  0  0  0  0  0  0  0  0
  -50.4453   59.5542   65.2262 C   0  0  0  0  0  0  0  0  0  0  0  0
  -50.3615   60.4538   64.0532 C   0  0  0  0  0  0  0  0  0  0  0  0
  -49.9331   60.1244   62.8521 C   0  0  0  0  0  0  0  0  0  0  0  0
  -49.4786   58.7769   62.3935 C   0  0  0  0  0  0  0  0  0  0  0  0
  -50.6864   57.8917   62.0818 C   0  0  0  0  0  0  0  0  0  0  0  0
  -50.9028   57.5791   60.6084 C   0  0  0  0  0  0  0  0  0  0  0  0
  -49.9469   58.2837   59.6533 C   0  0  0  0  0  0  0  0  0  0  0  0
  -49.2071   57.3316   58.7193 C   0  0  0  0  0  0  0  0  0  0  0  0
  -48.1959   56.4429   59.4261 C   0  0  0  0  0  0  0  0  0  0  0  0
  -47.1571   55.7932   58.5244 C   0  0  0  0  0  0  0  0  0  0  0  0
  -47.0517   56.4604   57.1874 C   0  0  0  0  0  0  0  0  0  0  0  0
  -42.2606   58.8229   65.8193 O   0  0  0  0  0  0  0  0  0  0  0  0
  -40.8567   58.7492   65.4867 C   0  0  0  0  0  0  0  0  0  0  0  0
  -40.2319   60.1250   65.3902 C   0  0  0  0  0  0  0  0  0  0  0  0
  -40.9125   61.0607   66.2374 O   0  0  0  0  0  0  0  0  0  0  0  0
  -40.8198   60.7856   67.1630 H   0  0  0  0  0  0  0  0  0  0  0  0
  -38.7597   60.1187   65.7291 C   0  0  0  0  0  0  0  0  0  0  0  0
  -38.0891   61.3043   65.2370 O   0  0  0  0  0  0  0  0  0  0  0  0
  -37.5109   61.6972   63.7922 P   0  0  0  0  0  0  0  0  0  0  0  0
  -37.3513   63.2157   63.7387 O   0  0  0  0  0  0  0  0  0  0  0  0
  -38.4923   61.2907   62.7626 O   0  0  0  0  0  0  0  0  0  0  0  0
  -39.3460   61.7138   62.9446 H   0  0  0  0  0  0  0  0  0  0  0  0
  -36.0461   61.0003   63.5201 O   0  0  0  0  0  0  0  0  0  0  0  0
  -34.9805   60.8465   64.4965 C   0  0  0  0  0  0  0  0  0  0  0  0
  -34.4151   62.1950   64.8682 C   0  0  0  0  0  0  0  0  0  0  0  0
  -33.4093   62.7964   63.9041 N   0  0  0  0  0  0  0  0  0  0  0  0
  -32.7395   61.7225   63.1083 C   0  0  0  0  0  0  0  0  0  0  0  0
  -32.3759   63.5337   64.6910 C   0  0  0  0  0  0  0  0  0  0  0  0
  -34.0882   63.7474   62.9603 C   0  0  0  0  0  0  0  0  0  0  0  0
 34 33  1  0  0  0
 34 35  1  0  0  0
 34 36  1  0  0  0
 34 37  1  0  0  0
 22 23  1  0  0  0
 22 25  1  0  0  0
 22 21  1  0  0  0
 23 24  1  0  0  0
 27 26  1  0  0  0
 27 28  2  0  0  0
 27 31  1  0  0  0
 27 29  1  0  0  0
 25 26  1  0  0  0
 32 33  1  0  0  0
 32 31  1  0  0  0
 29 30  1  0  0  0
 20 21  1  0  0  0
 20  2  1  0  0  0
  1  2  2  0  0  0
  2  3  1  0  0  0
  3  4  1  0  0  0
  4  5  1  0  0  0
  5  6  1  0  0  0
  6  7  1  0  0  0
  7  8  1  0  0  0
  8  9  1  0  0  0
  9 10  1  0  0  0
 10 11  2  0  0  0
 11 12  1  0  0  0
 12 13  1  0  0  0
 13 14  1  0  0  0
 14 15  1  0  0  0
 15 16  1  0  0  0
 16 17  1  0  0  0
 17 18  1  0  0  0
 18 19  1  0  0  0
M  CHG 1  28  -1
M  END
> <minimizedAffinity>
-7.89943

> <CNNscore>
0.8355609179

> <CNNaffinity>
6.5365715027

> <CNN_VS>
5.4617037773

> <CNNaffinity_variance>
0.1254091114

$$$$
/media/chris/experiments/cd1a-new-docking/inputs/ligands/4x6e_ligand.pdb


 37 36  0  0  0  0  0  0  0  0999 V2000
  -42.1976   57.5847   67.2096 O   0  0  0  0  0  0  0  0  0  0  0  0
  -42.5376   58.5556   66.5798 C   0  0  0  0  0  0  0  0  0  0  0  0
  -43.9285   59.1089   66.5240 C   0  0  0  0  0  0  0  0  0  0  0  0
  -44.8654   58.2880   65.6460 C   0  0  0  0  0  0  0  0  0  0  0  0
  -45.5809   57.1639   66.3754 C   0  0  0  0  0  0  0  0  0  0  0  0
  -46.9886   57.5277   66.8138 C   0  0  0  0  0  0  0  0  0  0  0  0
  -47.7846   58.2290   65.7266 C   0  0  0  0  0  0  0  0  0  0  0  0
  -48.4103   59.5161   66.2158 C   0  0  0  0  0  0  0  0  0  0  0  0
  -49.7879   59.8055   65.6553 C   0  0  0  0  0  0  0  0  0  0  0  0
  -50.4106   58.6555   64.9611 C   0  0  0  0  0  0  0  0  0  0  0  0
  -50.8341   58.6389   63.7140 C   0  0  0  0  0  0  0  0  0  0  0  0
  -50.7474   59.7475   62.7160 C   0  0  0  0  0  0  0  0  0  0  0  0
  -49.9423   59.2961   61.4963 C   0  0  0  0  0  0  0  0  0  0  0  0
  -49.3653   57.8905   61.5796 C   0  0  0  0  0  0  0  0  0  0  0  0
  -49.7893   56.9525   60.4558 C   0  0  0  0  0  0  0  0  0  0  0  0
  -49.8364   57.6239   59.0872 C   0  0  0  0  0  0  0  0  0  0  0  0
  -48.5397   57.5054   58.3021 C   0  0  0  0  0  0  0  0  0  0  0  0
  -47.7996   56.1859   58.4620 C   0  0  0  0  0  0  0  0  0  0  0  0
  -47.2330   55.6791   57.1713 C   0  0  0  0  0  0  0  0  0  0  0  0
  -41.7099   59.2983   65.8389 O   0  0  0  0  0  0  0  0  0  0  0  0
  -40.8250   58.6133   64.9253 C   0  0  0  0  0  0  0  0  0  0  0  0
  -41.5945   57.8234   63.8879 C   0  0  0  0  0  0  0  0  0  0  0  0
  -42.2371   58.6956   62.9483 O   0  0  0  0  0  0  0  0  0  0  0  0
  -41.5652   59.1986   62.4620 H   0  0  0  0  0  0  0  0  0  0  0  0
  -40.7230   56.8384   63.1445 C   0  0  0  0  0  0  0  0  0  0  0  0
  -40.4324   57.2861   61.7982 O   0  0  0  0  0  0  0  0  0  0  0  0
  -39.3312   58.2942   61.2090 P   0  0  0  0  0  0  0  0  0  0  0  0
  -39.8967   59.7118   61.2775 O   0  0  0  0  0  0  0  0  0  0  0  0
  -39.0873   57.9530   59.7904 O   0  0  0  0  0  0  0  0  0  0  0  0
  -39.9230   57.9936   59.2997 H   0  0  0  0  0  0  0  0  0  0  0  0
  -37.9364   58.2373   62.0787 O   0  0  0  0  0  0  0  0  0  0  0  0
  -37.7385   58.7867   63.4098 C   0  0  0  0  0  0  0  0  0  0  0  0
  -36.3431   59.3447   63.5415 C   0  0  0  0  0  0  0  0  0  0  0  0
  -35.2694   58.3797   64.0094 N   0  0  0  0  0  0  0  0  0  0  0  0
  -34.3594   59.0448   64.9916 C   0  0  0  0  0  0  0  0  0  0  0  0
  -34.4704   57.9440   62.8252 C   0  0  0  0  0  0  0  0  0  0  0  0
  -35.8901   57.1769   64.6607 C   0  0  0  0  0  0  0  0  0  0  0  0
 34 33  1  0  0  0
 34 35  1  0  0  0
 34 36  1  0  0  0
 34 37  1  0  0  0
 22 23  1  0  0  0
 22 25  1  0  0  0
 22 21  1  0  0  0
 23 24  1  0  0  0
 27 26  1  0  0  0
 27 28  2  0  0  0
 27 31  1  0  0  0
 27 29  1  0  0  0
 25 26  1  0  0  0
 32 33  1  0  0  0
 32 31  1  0  0  0
 29 30  1  0  0  0
 20 21  1  0  0  0
 20  2  1  0  0  0
  1  2  2  0  0  0
  2  3  1  0  0  0
  3  4  1  0  0  0
  4  5  1  0  0  0
  5  6  1  0  0  0
  6  7  1  0  0  0
  7  8  1  0  0  0
  8  9  1  0  0  0
  9 10  1  0  0  0
 10 11  2  0  0  0
 11 12  1  0  0  0
 12 13  1  0  0  0
 13 14  1  0  0  0
 14 15  1  0  0  0
 15 16  1  0  0  0
 16 17  1  0  0  0
 17 18  1  0  0  0
 18 19  1  0  0  0
M  CHG 1  28  -1
M  END
> <minimizedAffinity>
-7.40459

> <CNNscore>
0.7229875922

> <CNNaffinity>
6.9820251465

> <CNN_VS>
5.0479173660

> <CNNaffinity_variance>
0.3761882186

$$$$
/media/chris/experiments/cd1a-new-docking/inputs/ligands/4x6e_ligand.pdb


 37 36  0  0  0  0  0  0  0  0999 V2000
  -43.3113   58.3630   62.7846 O   0  0  0  0  0  0  0  0  0  0  0  0
  -42.7652   58.4592   63.8557 C   0  0  0  0  0  0  0  0  0  0  0  0
  -43.2684   57.8762   65.1404 C   0  0  0  0  0  0  0  0  0  0  0  0
  -44.7750   58.0237   65.3162 C   0  0  0  0  0  0  0  0  0  0  0  0
  -45.1926   59.2230   66.1497 C   0  0  0  0  0  0  0  0  0  0  0  0
  -46.6032   59.7021   65.8552 C   0  0  0  0  0  0  0  0  0  0  0  0
  -47.6712   58.7826   66.4221 C   0  0  0  0  0  0  0  0  0  0  0  0
  -48.5145   58.1489   65.3383 C   0  0  0  0  0  0  0  0  0  0  0  0
  -50.0094   58.3249   65.5125 C   0  0  0  0  0  0  0  0  0  0  0  0
  -50.4926   59.6954   65.2290 C   0  0  0  0  0  0  0  0  0  0  0  0
  -50.9737   60.1262   64.0811 C   0  0  0  0  0  0  0  0  0  0  0  0
  -51.1775   59.3318   62.8321 C   0  0  0  0  0  0  0  0  0  0  0  0
  -49.8901   59.3095   62.0064 C   0  0  0  0  0  0  0  0  0  0  0  0
  -49.3874   57.9263   61.6198 C   0  0  0  0  0  0  0  0  0  0  0  0
  -50.2320   57.2017   60.5786 C   0  0  0  0  0  0  0  0  0  0  0  0
  -50.0383   57.7312   59.1615 C   0  0  0  0  0  0  0  0  0  0  0  0
  -48.6088   57.6190   58.6558 C   0  0  0  0  0  0  0  0  0  0  0  0
  -47.9944   56.2299   58.7422 C   0  0  0  0  0  0  0  0  0  0  0  0
  -47.5149   55.7248   57.4161 C   0  0  0  0  0  0  0  0  0  0  0  0
  -41.6085   59.0981   64.0545 O   0  0  0  0  0  0  0  0  0  0  0  0
  -40.3864   58.3894   63.7524 C   0  0  0  0  0  0  0  0  0  0  0  0
  -39.5722   59.1045   62.6950 C   0  0  0  0  0  0  0  0  0  0  0  0
  -40.1043   58.8646   61.3851 O   0  0  0  0  0  0  0  0  0  0  0  0
  -41.0014   59.2294   61.3287 H   0  0  0  0  0  0  0  0  0  0  0  0
  -39.4857   60.5931   62.9374 C   0  0  0  0  0  0  0  0  0  0  0  0
  -38.2007   60.9756   63.4848 O   0  0  0  0  0  0  0  0  0  0  0  0
  -37.6244   60.9859   64.9828 P   0  0  0  0  0  0  0  0  0  0  0  0
  -36.9807   59.6276   65.2560 O   0  0  0  0  0  0  0  0  0  0  0  0
  -38.7517   61.1699   65.9229 O   0  0  0  0  0  0  0  0  0  0  0  0
  -39.4056   60.4668   65.7852 H   0  0  0  0  0  0  0  0  0  0  0  0
  -36.4901   62.1599   65.1833 O   0  0  0  0  0  0  0  0  0  0  0  0
  -35.2140   62.2397   64.4921 C   0  0  0  0  0  0  0  0  0  0  0  0
  -34.3528   63.3136   65.1093 C   0  0  0  0  0  0  0  0  0  0  0  0
  -33.3407   63.9787   64.1949 N   0  0  0  0  0  0  0  0  0  0  0  0
  -31.9496   63.5963   64.5870 C   0  0  0  0  0  0  0  0  0  0  0  0
  -33.4894   65.4599   64.3156 C   0  0  0  0  0  0  0  0  0  0  0  0
  -33.5720   63.5701   62.7680 C   0  0  0  0  0  0  0  0  0  0  0  0
 34 33  1  0  0  0
 34 35  1  0  0  0
 34 36  1  0  0  0
 34 37  1  0  0  0
 22 23  1  0  0  0
 22 25  1  0  0  0
 22 21  1  0  0  0
 23 24  1  0  0  0
 27 26  1  0  0  0
 27 28  2  0  0  0
 27 31  1  0  0  0
 27 29  1  0  0  0
 25 26  1  0  0  0
 32 33  1  0  0  0
 32 31  1  0  0  0
 29 30  1  0  0  0
 20 21  1  0  0  0
 20  2  1  0  0  0
  1  2  2  0  0  0
  2  3  1  0  0  0
  3  4  1  0  0  0
  4  5  1  0  0  0
  5  6  1  0  0  0
  6  7  1  0  0  0
  7  8  1  0  0  0
  8  9  1  0  0  0
  9 10  1  0  0  0
 10 11  2  0  0  0
 11 12  1  0  0  0
 12 13  1  0  0  0
 13 14  1  0  0  0
 14 15  1  0  0  0
 15 16  1  0  0  0
 16 17  1  0  0  0
 17 18  1  0  0  0
 18 19  1  0  0  0
M  CHG 1  28  -1
M  END
> <minimizedAffinity>
-7.67400

> <CNNscore>
0.6534249187

> <CNNaffinity>
6.3808078766

> <CNN_VS>
4.1693787575

> <CNNaffinity_variance>
0.3896512091

$$$$
/media/chris/experiments/cd1a-new-docking/inputs/ligands/4x6e_ligand.pdb


 37 36  0  0  0  0  0  0  0  0999 V2000
  -41.2647   60.8419   66.3387 O   0  0  0  0  0  0  0  0  0  0  0  0
  -41.7151   59.7650   66.0352 C   0  0  0  0  0  0  0  0  0  0  0  0
  -42.7328   58.9981   66.8225 C   0  0  0  0  0  0  0  0  0  0  0  0
  -44.0233   58.7482   66.0513 C   0  0  0  0  0  0  0  0  0  0  0  0
  -44.5984   57.3536   66.2304 C   0  0  0  0  0  0  0  0  0  0  0  0
  -45.9383   57.3395   66.9448 C   0  0  0  0  0  0  0  0  0  0  0  0
  -46.7538   58.5973   66.6986 C   0  0  0  0  0  0  0  0  0  0  0  0
  -48.0142   58.3168   65.9112 C   0  0  0  0  0  0  0  0  0  0  0  0
  -47.9949   58.8190   64.4818 C   0  0  0  0  0  0  0  0  0  0  0  0
  -48.4197   60.2294   64.3321 C   0  0  0  0  0  0  0  0  0  0  0  0
  -49.6467   60.6497   64.1026 C   0  0  0  0  0  0  0  0  0  0  0  0
  -50.8799   59.8145   63.9833 C   0  0  0  0  0  0  0  0  0  0  0  0
  -51.1338   59.4567   62.5180 C   0  0  0  0  0  0  0  0  0  0  0  0
  -50.9124   57.9954   62.1559 C   0  0  0  0  0  0  0  0  0  0  0  0
  -49.5669   57.6887   61.5094 C   0  0  0  0  0  0  0  0  0  0  0  0
  -49.6830   56.9277   60.1928 C   0  0  0  0  0  0  0  0  0  0  0  0
  -49.1416   57.6911   58.9944 C   0  0  0  0  0  0  0  0  0  0  0  0
  -48.2550   56.8864   58.0559 C   0  0  0  0  0  0  0  0  0  0  0  0
  -47.3611   55.9287   58.7819 C   0  0  0  0  0  0  0  0  0  0  0  0
  -41.3771   59.0936   64.9303 O   0  0  0  0  0  0  0  0  0  0  0  0
  -40.7234   57.8155   65.0917 C   0  0  0  0  0  0  0  0  0  0  0  0
  -39.3910   57.7743   64.3738 C   0  0  0  0  0  0  0  0  0  0  0  0
  -39.4454   58.5095   63.1438 O   0  0  0  0  0  0  0  0  0  0  0  0
  -39.6220   59.4443   63.3334 H   0  0  0  0  0  0  0  0  0  0  0  0
  -38.2576   58.2994   65.2235 C   0  0  0  0  0  0  0  0  0  0  0  0
  -37.6122   59.4431   64.6129 O   0  0  0  0  0  0  0  0  0  0  0  0
  -37.9649   61.0089   64.6106 P   0  0  0  0  0  0  0  0  0  0  0  0
  -37.9645   61.5003   66.0572 O   0  0  0  0  0  0  0  0  0  0  0  0
  -39.3235   61.1877   64.0533 O   0  0  0  0  0  0  0  0  0  0  0  0
  -39.9571   60.6688   64.5730 H   0  0  0  0  0  0  0  0  0  0  0  0
  -36.8572   61.8741   63.7565 O   0  0  0  0  0  0  0  0  0  0  0  0
  -35.4292   61.9293   64.0223 C   0  0  0  0  0  0  0  0  0  0  0  0
  -35.0405   63.3065   64.5000 C   0  0  0  0  0  0  0  0  0  0  0  0
  -34.5851   63.4190   65.9431 N   0  0  0  0  0  0  0  0  0  0  0  0
  -35.6555   64.0379   66.7835 C   0  0  0  0  0  0  0  0  0  0  0  0
  -33.3679   64.2831   65.9935 C   0  0  0  0  0  0  0  0  0  0  0  0
  -34.2558   62.0628   66.4986 C   0  0  0  0  0  0  0  0  0  0  0  0
 34 33  1  0  0  0
 34 35  1  0  0  0
 34 36  1  0  0  0
 34 37  1  0  0  0
 22 23  1  0  0  0
 22 25  1  0  0  0
 22 21  1  0  0  0
 23 24  1  0  0  0
 27 26  1  0  0  0
 27 28  2  0  0  0
 27 31  1  0  0  0
 27 29  1  0  0  0
 25 26  1  0  0  0
 32 33  1  0  0  0
 32 31  1  0  0  0
 29 30  1  0  0  0
 20 21  1  0  0  0
 20  2  1  0  0  0
  1  2  2  0  0  0
  2  3  1  0  0  0
  3  4  1  0  0  0
  4  5  1  0  0  0
  5  6  1  0  0  0
  6  7  1  0  0  0
  7  8  1  0  0  0
  8  9  1  0  0  0
  9 10  1  0  0  0
 10 11  2  0  0  0
 11 12  1  0  0  0
 12 13  1  0  0  0
 13 14  1  0  0  0
 14 15  1  0  0  0
 15 16  1  0  0  0
 16 17  1  0  0  0
 17 18  1  0  0  0
 18 19  1  0  0  0
M  CHG 1  28  -1
M  END
> <minimizedAffinity>
-7.65999

> <CNNscore>
0.6391331553

> <CNNaffinity>
6.4628143311

> <CNN_VS>
4.1305990219

> <CNNaffinity_variance>
0.0379561223

$$$$
/media/chris/experiments/cd1a-new-docking/inputs/ligands/4x6e_ligand.pdb


 37 36  0  0  0  0  0  0  0  0999 V2000
  -41.0560   57.8788   64.8896 O   0  0  0  0  0  0  0  0  0  0  0  0
  -41.5973   58.5572   65.7272 C   0  0  0  0  0  0  0  0  0  0  0  0
  -42.8722   58.2097   66.4327 C   0  0  0  0  0  0  0  0  0  0  0  0
  -43.7039   59.4316   66.8040 C   0  0  0  0  0  0  0  0  0  0  0  0
  -45.1924   59.2772   66.5431 C   0  0  0  0  0  0  0  0  0  0  0  0
  -45.5137   58.2703   65.4526 C   0  0  0  0  0  0  0  0  0  0  0  0
  -46.0031   58.9220   64.1707 C   0  0  0  0  0  0  0  0  0  0  0  0
  -46.3183   60.3892   64.3591 C   0  0  0  0  0  0  0  0  0  0  0  0
  -47.7802   60.7510   64.1925 C   0  0  0  0  0  0  0  0  0  0  0  0
  -48.6080   60.4842   65.3908 C   0  0  0  0  0  0  0  0  0  0  0  0
  -49.5386   59.5585   65.5002 C   0  0  0  0  0  0  0  0  0  0  0  0
  -49.9381   58.5533   64.4695 C   0  0  0  0  0  0  0  0  0  0  0  0
  -50.7717   59.2233   63.3759 C   0  0  0  0  0  0  0  0  0  0  0  0
  -50.9748   58.3986   62.1134 C   0  0  0  0  0  0  0  0  0  0  0  0
  -49.8838   58.5532   61.0606 C   0  0  0  0  0  0  0  0  0  0  0  0
  -50.0789   57.6534   59.8446 C   0  0  0  0  0  0  0  0  0  0  0  0
  -48.8147   56.9292   59.4096 C   0  0  0  0  0  0  0  0  0  0  0  0
  -48.3534   57.2198   57.9893 C   0  0  0  0  0  0  0  0  0  0  0  0
  -47.7206   56.0324   57.3311 C   0  0  0  0  0  0  0  0  0  0  0  0
  -41.1264   59.7289   66.1643 O   0  0  0  0  0  0  0  0  0  0  0  0
  -39.9912   60.2983   65.4758 C   0  0  0  0  0  0  0  0  0  0  0  0
  -38.6831   59.8791   66.1126 C   0  0  0  0  0  0  0  0  0  0  0  0
  -38.0951   58.7787   65.4058 O   0  0  0  0  0  0  0  0  0  0  0  0
  -37.8797   59.0536   64.5008 H   0  0  0  0  0  0  0  0  0  0  0  0
  -37.6882   61.0130   66.1947 C   0  0  0  0  0  0  0  0  0  0  0  0
  -37.7317   61.8537   65.0163 O   0  0  0  0  0  0  0  0  0  0  0  0
  -37.0525   61.7201   63.5682 P   0  0  0  0  0  0  0  0  0  0  0  0
  -35.5532   61.5004   63.7627 O   0  0  0  0  0  0  0  0  0  0  0  0
  -37.2508   62.9884   62.8331 O   0  0  0  0  0  0  0  0  0  0  0  0
  -36.8789   63.7219   63.3475 H   0  0  0  0  0  0  0  0  0  0  0  0
  -37.6702   60.4477   62.7288 O   0  0  0  0  0  0  0  0  0  0  0  0
  -38.7314   60.5144   61.7378 C   0  0  0  0  0  0  0  0  0  0  0  0
  -39.6466   59.3227   61.8728 C   0  0  0  0  0  0  0  0  0  0  0  0
  -39.2744   58.0890   61.0715 N   0  0  0  0  0  0  0  0  0  0  0  0
  -40.4981   57.4428   60.5058 C   0  0  0  0  0  0  0  0  0  0  0  0
  -38.5886   57.1201   61.9779 C   0  0  0  0  0  0  0  0  0  0  0  0
  -38.3523   58.4527   59.9428 C   0  0  0  0  0  0  0  0  0  0  0  0
 34 33  1  0  0  0
 34 35  1  0  0  0
 34 36  1  0  0  0
 34 37  1  0  0  0
 22 23  1  0  0  0
 22 25  1  0  0  0
 22 21  1  0  0  0
 23 24  1  0  0  0
 27 26  1  0  0  0
 27 28  2  0  0  0
 27 31  1  0  0  0
 27 29  1  0  0  0
 25 26  1  0  0  0
 32 33  1  0  0  0
 32 31  1  0  0  0
 29 30  1  0  0  0
 20 21  1  0  0  0
 20  2  1  0  0  0
  1  2  2  0  0  0
  2  3  1  0  0  0
  3  4  1  0  0  0
  4  5  1  0  0  0
  5  6  1  0  0  0
  6  7  1  0  0  0
  7  8  1  0  0  0
  8  9  1  0  0  0
  9 10  1  0  0  0
 10 11  2  0  0  0
 11 12  1  0  0  0
 12 13  1  0  0  0
 13 14  1  0  0  0
 14 15  1  0  0  0
 15 16  1  0  0  0
 16 17  1  0  0  0
 17 18  1  0  0  0
 18 19  1  0  0  0
M  CHG 1  28  -1
M  END
> <minimizedAffinity>
-7.87645

> <CNNscore>
0.5751999617

> <CNNaffinity>
6.6260209084

> <CNN_VS>
3.8112869263

> <CNNaffinity_variance>
0.1417409480

$$$$
/media/chris/experiments/cd1a-new-docking/inputs/ligands/4x6e_ligand.pdb


 37 36  0  0  0  0  0  0  0  0999 V2000
  -40.9571   55.7982   62.3670 O   0  0  0  0  0  0  0  0  0  0  0  0
  -41.2513   56.7824   62.9993 C   0  0  0  0  0  0  0  0  0  0  0  0
  -42.5064   56.9559   63.7983 C   0  0  0  0  0  0  0  0  0  0  0  0
  -42.4117   56.3638   65.1994 C   0  0  0  0  0  0  0  0  0  0  0  0
  -42.9665   57.2582   66.2947 C   0  0  0  0  0  0  0  0  0  0  0  0
  -42.8996   58.7377   65.9588 C   0  0  0  0  0  0  0  0  0  0  0  0
  -44.2227   59.4533   66.1705 C   0  0  0  0  0  0  0  0  0  0  0  0
  -44.8652   59.8656   64.8649 C   0  0  0  0  0  0  0  0  0  0  0  0
  -46.3681   60.0480   64.9266 C   0  0  0  0  0  0  0  0  0  0  0  0
  -47.1118   58.8148   65.2707 C   0  0  0  0  0  0  0  0  0  0  0  0
  -48.1285   58.3102   64.6024 C   0  0  0  0  0  0  0  0  0  0  0  0
  -48.7294   58.8361   63.3396 C   0  0  0  0  0  0  0  0  0  0  0  0
  -50.2478   58.6522   63.3625 C   0  0  0  0  0  0  0  0  0  0  0  0
  -50.8888   58.3537   62.0151 C   0  0  0  0  0  0  0  0  0  0  0  0
  -50.0327   58.7018   60.8033 C   0  0  0  0  0  0  0  0  0  0  0  0
  -50.1945   57.7256   59.6427 C   0  0  0  0  0  0  0  0  0  0  0  0
  -48.9177   57.5025   58.8476 C   0  0  0  0  0  0  0  0  0  0  0  0
  -48.1113   56.2741   59.2416 C   0  0  0  0  0  0  0  0  0  0  0  0
  -47.1705   55.8285   58.1646 C   0  0  0  0  0  0  0  0  0  0  0  0
  -40.4848   57.8731   63.0915 O   0  0  0  0  0  0  0  0  0  0  0  0
  -39.1338   57.7921   62.5863 C   0  0  0  0  0  0  0  0  0  0  0  0
  -38.1371   57.5282   63.6950 C   0  0  0  0  0  0  0  0  0  0  0  0
  -36.8038   57.8504   63.2770 O   0  0  0  0  0  0  0  0  0  0  0  0
  -36.7464   58.7988   63.0815 H   0  0  0  0  0  0  0  0  0  0  0  0
  -38.4636   58.2851   64.9611 C   0  0  0  0  0  0  0  0  0  0  0  0
  -37.7065   59.5155   65.0630 O   0  0  0  0  0  0  0  0  0  0  0  0
  -37.9146   60.9688   64.4145 P   0  0  0  0  0  0  0  0  0  0  0  0
  -39.4001   61.1449   64.1043 O   0  0  0  0  0  0  0  0  0  0  0  0
  -37.1579   61.0339   63.1450 O   0  0  0  0  0  0  0  0  0  0  0  0
  -37.4534   60.3224   62.5556 H   0  0  0  0  0  0  0  0  0  0  0  0
  -37.4433   62.1609   65.4451 O   0  0  0  0  0  0  0  0  0  0  0  0
  -36.5469   63.2595   65.1253 C   0  0  0  0  0  0  0  0  0  0  0  0
  -35.1219   62.8790   65.4423 C   0  0  0  0  0  0  0  0  0  0  0  0
  -34.0556   63.9031   65.1002 N   0  0  0  0  0  0  0  0  0  0  0  0
  -34.5344   64.8163   64.0177 C   0  0  0  0  0  0  0  0  0  0  0  0
  -32.8371   63.1826   64.6240 C   0  0  0  0  0  0  0  0  0  0  0  0
  -33.7075   64.7244   66.3087 C   0  0  0  0  0  0  0  0  0  0  0  0
 34 33  1  0  0  0
 34 35  1  0  0  0
 34 36  1  0  0  0
 34 37  1  0  0  0
 22 23  1  0  0  0
 22 25  1  0  0  0
 22 21  1  0  0  0
 23 24  1  0  0  0
 27 26  1  0  0  0
 27 28  2  0  0  0
 27 31  1  0  0  0
 27 29  1  0  0  0
 25 26  1  0  0  0
 32 33  1  0  0  0
 32 31  1  0  0  0
 29 30  1  0  0  0
 20 21  1  0  0  0
 20  2  1  0  0  0
  1  2  2  0  0  0
  2  3  1  0  0  0
  3  4  1  0  0  0
  4  5  1  0  0  0
  5  6  1  0  0  0
  6  7  1  0  0  0
  7  8  1  0  0  0
  8  9  1  0  0  0
  9 10  1  0  0  0
 10 11  2  0  0  0
 11 12  1  0  0  0
 12 13  1  0  0  0
 13 14  1  0  0  0
 14 15  1  0  0  0
 15 16  1  0  0  0
 16 17  1  0  0  0
 17 18  1  0  0  0
 18 19  1  0  0  0
M  CHG 1  28  -1
M  END
> <minimizedAffinity>
-7.56903

> <CNNscore>
0.5649117231

> <CNNaffinity>
6.4840836525

> <CNN_VS>
3.6629347801

> <CNNaffinity_variance>
0.1347057819

$$$$
/media/chris/experiments/cd1a-new-docking/inputs/ligands/4x6e_ligand.pdb


 37 36  0  0  0  0  0  0  0  0999 V2000
  -42.2097   60.3230   64.8303 O   0  0  0  0  0  0  0  0  0  0  0  0
  -42.7945   59.4079   64.3058 C   0  0  0  0  0  0  0  0  0  0  0  0
  -43.9837   59.5420   63.4050 C   0  0  0  0  0  0  0  0  0  0  0  0
  -45.2991   59.1983   64.0936 C   0  0  0  0  0  0  0  0  0  0  0  0
  -45.6534   60.1104   65.2555 C   0  0  0  0  0  0  0  0  0  0  0  0
  -46.3213   59.3857   66.4109 C   0  0  0  0  0  0  0  0  0  0  0  0
  -47.5381   58.5835   65.9825 C   0  0  0  0  0  0  0  0  0  0  0  0
  -48.8149   59.3892   66.0722 C   0  0  0  0  0  0  0  0  0  0  0  0
  -49.9640   58.8523   65.2432 C   0  0  0  0  0  0  0  0  0  0  0  0
  -50.7534   59.8998   64.5563 C   0  0  0  0  0  0  0  0  0  0  0  0
  -50.8300   60.0848   63.2545 C   0  0  0  0  0  0  0  0  0  0  0  0
  -50.1802   59.2667   62.1863 C   0  0  0  0  0  0  0  0  0  0  0  0
  -50.9773   57.9832   61.9478 C   0  0  0  0  0  0  0  0  0  0  0  0
  -50.7731   57.3321   60.5878 C   0  0  0  0  0  0  0  0  0  0  0  0
  -50.0697   58.2045   59.5550 C   0  0  0  0  0  0  0  0  0  0  0  0
  -49.0353   57.4517   58.7248 C   0  0  0  0  0  0  0  0  0  0  0  0
  -48.2590   56.4086   59.5130 C   0  0  0  0  0  0  0  0  0  0  0  0
  -47.0996   55.7610   58.7707 C   0  0  0  0  0  0  0  0  0  0  0  0
  -47.0764   56.1102   57.3144 C   0  0  0  0  0  0  0  0  0  0  0  0
  -42.4555   58.1225   64.4429 O   0  0  0  0  0  0  0  0  0  0  0  0
  -41.0611   57.7740   64.2980 C   0  0  0  0  0  0  0  0  0  0  0  0
  -40.8239   56.9134   63.0751 C   0  0  0  0  0  0  0  0  0  0  0  0
  -41.9183   57.0141   62.1539 O   0  0  0  0  0  0  0  0  0  0  0  0
  -41.9882   57.9269   61.8332 H   0  0  0  0  0  0  0  0  0  0  0  0
  -39.5358   57.2572   62.3646 C   0  0  0  0  0  0  0  0  0  0  0  0
  -39.0878   58.5976   62.6808 O   0  0  0  0  0  0  0  0  0  0  0  0
  -38.9940   59.9398   61.8057 P   0  0  0  0  0  0  0  0  0  0  0  0
  -40.3627   60.6182   61.8240 O   0  0  0  0  0  0  0  0  0  0  0  0
  -38.6689   59.5736   60.4098 O   0  0  0  0  0  0  0  0  0  0  0  0
  -39.3401   58.9603   60.0717 H   0  0  0  0  0  0  0  0  0  0  0  0
  -37.8781   60.9811   62.4186 O   0  0  0  0  0  0  0  0  0  0  0  0
  -37.9058   61.5778   63.7437 C   0  0  0  0  0  0  0  0  0  0  0  0
  -36.8760   62.6759   63.8428 C   0  0  0  0  0  0  0  0  0  0  0  0
  -35.9141   62.5983   65.0140 N   0  0  0  0  0  0  0  0  0  0  0  0
  -35.9872   63.8453   65.8354 C   0  0  0  0  0  0  0  0  0  0  0  0
  -34.5265   62.4476   64.4826 C   0  0  0  0  0  0  0  0  0  0  0  0
  -36.2427   61.4218   65.8881 C   0  0  0  0  0  0  0  0  0  0  0  0
 34 33  1  0  0  0
 34 35  1  0  0  0
 34 36  1  0  0  0
 34 37  1  0  0  0
 22 23  1  0  0  0
 22 25  1  0  0  0
 22 21  1  0  0  0
 23 24  1  0  0  0
 27 26  1  0  0  0
 27 28  2  0  0  0
 27 31  1  0  0  0
 27 29  1  0  0  0
 25 26  1  0  0  0
 32 33  1  0  0  0
 32 31  1  0  0  0
 29 30  1  0  0  0
 20 21  1  0  0  0
 20  2  1  0  0  0
  1  2  2  0  0  0
  2  3  1  0  0  0
  3  4  1  0  0  0
  4  5  1  0  0  0
  5  6  1  0  0  0
  6  7  1  0  0  0
  7  8  1  0  0  0
  8  9  1  0  0  0
  9 10  1  0  0  0
 10 11  2  0  0  0
 11 12  1  0  0  0
 12 13  1  0  0  0
 13 14  1  0  0  0
 14 15  1  0  0  0
 15 16  1  0  0  0
 16 17  1  0  0  0
 17 18  1  0  0  0
 18 19  1  0  0  0
M  CHG 1  28  -1
M  END
> <minimizedAffinity>
-7.94219

> <CNNscore>
0.5646831393

> <CNNaffinity>
6.5959501266

> <CNN_VS>
3.7246217728

> <CNNaffinity_variance>
0.2405382097

$$$$
/media/chris/experiments/cd1a-new-docking/inputs/ligands/4x6e_ligand.pdb


 37 36  0  0  0  0  0  0  0  0999 V2000
  -39.7100   57.0820   62.7198 O   0  0  0  0  0  0  0  0  0  0  0  0
  -40.3759   57.4219   63.6662 C   0  0  0  0  0  0  0  0  0  0  0  0
  -41.8722   57.3909   63.7289 C   0  0  0  0  0  0  0  0  0  0  0  0
  -42.4121   56.2720   64.6116 C   0  0  0  0  0  0  0  0  0  0  0  0
  -43.6584   56.6419   65.3973 C   0  0  0  0  0  0  0  0  0  0  0  0
  -44.2772   57.9593   64.9642 C   0  0  0  0  0  0  0  0  0  0  0  0
  -44.6927   58.8319   66.1361 C   0  0  0  0  0  0  0  0  0  0  0  0
  -46.0074   59.5366   65.8867 C   0  0  0  0  0  0  0  0  0  0  0  0
  -47.2161   58.8628   66.5040 C   0  0  0  0  0  0  0  0  0  0  0  0
  -47.9189   57.9316   65.5922 C   0  0  0  0  0  0  0  0  0  0  0  0
  -48.8304   58.2599   64.6999 C   0  0  0  0  0  0  0  0  0  0  0  0
  -49.3273   59.6320   64.3793 C   0  0  0  0  0  0  0  0  0  0  0  0
  -50.7972   59.5751   63.9598 C   0  0  0  0  0  0  0  0  0  0  0  0
  -51.0477   59.1677   62.5153 C   0  0  0  0  0  0  0  0  0  0  0  0
  -49.9878   59.6300   61.5226 C   0  0  0  0  0  0  0  0  0  0  0  0
  -49.9551   58.8068   60.2391 C   0  0  0  0  0  0  0  0  0  0  0  0
  -50.3736   57.3575   60.4303 C   0  0  0  0  0  0  0  0  0  0  0  0
  -49.2471   56.3382   60.3496 C   0  0  0  0  0  0  0  0  0  0  0  0
  -48.4096   56.4961   59.1178 C   0  0  0  0  0  0  0  0  0  0  0  0
  -39.8697   57.8705   64.8187 O   0  0  0  0  0  0  0  0  0  0  0  0
  -40.6508   58.8241   65.5721 C   0  0  0  0  0  0  0  0  0  0  0  0
  -40.0160   60.1985   65.5630 C   0  0  0  0  0  0  0  0  0  0  0  0
  -40.7626   61.1165   66.3730 O   0  0  0  0  0  0  0  0  0  0  0  0
  -40.7492   60.8182   67.2960 H   0  0  0  0  0  0  0  0  0  0  0  0
  -38.5775   60.1763   66.0243 C   0  0  0  0  0  0  0  0  0  0  0  0
  -37.9987   61.5036   66.0463 O   0  0  0  0  0  0  0  0  0  0  0  0
  -36.4890   62.0212   66.2168 P   0  0  0  0  0  0  0  0  0  0  0  0
  -35.5523   60.9557   65.6501 O   0  0  0  0  0  0  0  0  0  0  0  0
  -36.2028   62.1802   67.6594 O   0  0  0  0  0  0  0  0  0  0  0  0
  -36.3563   61.3374   68.1144 H   0  0  0  0  0  0  0  0  0  0  0  0
  -36.2407   63.4306   65.4062 O   0  0  0  0  0  0  0  0  0  0  0  0
  -34.9633   63.9156   64.9105 C   0  0  0  0  0  0  0  0  0  0  0  0
  -34.1548   64.5036   66.0404 C   0  0  0  0  0  0  0  0  0  0  0  0
  -32.9010   65.2647   65.6511 N   0  0  0  0  0  0  0  0  0  0  0  0
  -31.7656   64.3201   65.4191 C   0  0  0  0  0  0  0  0  0  0  0  0
  -32.5408   66.1925   66.7647 C   0  0  0  0  0  0  0  0  0  0  0  0
  -33.1350   66.0589   64.3978 C   0  0  0  0  0  0  0  0  0  0  0  0
 34 33  1  0  0  0
 34 35  1  0  0  0
 34 36  1  0  0  0
 34 37  1  0  0  0
 22 23  1  0  0  0
 22 25  1  0  0  0
 22 21  1  0  0  0
 23 24  1  0  0  0
 27 26  1  0  0  0
 27 28  2  0  0  0
 27 31  1  0  0  0
 27 29  1  0  0  0
 25 26  1  0  0  0
 32 33  1  0  0  0
 32 31  1  0  0  0
 29 30  1  0  0  0
 20 21  1  0  0  0
 20  2  1  0  0  0
  1  2  2  0  0  0
  2  3  1  0  0  0
  3  4  1  0  0  0
  4  5  1  0  0  0
  5  6  1  0  0  0
  6  7  1  0  0  0
  7  8  1  0  0  0
  8  9  1  0  0  0
  9 10  1  0  0  0
 10 11  2  0  0  0
 11 12  1  0  0  0
 12 13  1  0  0  0
 13 14  1  0  0  0
 14 15  1  0  0  0
 15 16  1  0  0  0
 16 17  1  0  0  0
 17 18  1  0  0  0
 18 19  1  0  0  0
M  CHG 1  28  -1
M  END
> <minimizedAffinity>
-7.86881

> <CNNscore>
0.5608049631

> <CNNaffinity>
6.2282156944

> <CNN_VS>
3.4928143024

> <CNNaffinity_variance>
0.1566092074

$$$$
/media/chris/experiments/cd1a-new-docking/inputs/ligands/4x6e_ligand.pdb


 37 36  0  0  0  0  0  0  0  0999 V2000
  -39.7582   58.7959   65.5907 O   0  0  0  0  0  0  0  0  0  0  0  0
  -40.1169   59.8974   65.9266 C   0  0  0  0  0  0  0  0  0  0  0  0
  -41.5401   60.3266   66.1108 C   0  0  0  0  0  0  0  0  0  0  0  0
  -42.5308   59.1720   66.0214 C   0  0  0  0  0  0  0  0  0  0  0  0
  -43.8268   59.4002   66.7802 C   0  0  0  0  0  0  0  0  0  0  0  0
  -45.0218   58.6970   66.1608 C   0  0  0  0  0  0  0  0  0  0  0  0
  -45.2437   59.0765   64.7067 C   0  0  0  0  0  0  0  0  0  0  0  0
  -46.0506   60.3478   64.5640 C   0  0  0  0  0  0  0  0  0  0  0  0
  -47.5379   60.1368   64.3657 C   0  0  0  0  0  0  0  0  0  0  0  0
  -47.9090   58.7459   64.0197 C   0  0  0  0  0  0  0  0  0  0  0  0
  -49.1235   58.3100   63.7554 C   0  0  0  0  0  0  0  0  0  0  0  0
  -50.3810   59.1155   63.7048 C   0  0  0  0  0  0  0  0  0  0  0  0
  -51.1090   58.8725   62.3816 C   0  0  0  0  0  0  0  0  0  0  0  0
  -50.2181   58.8071   61.1498 C   0  0  0  0  0  0  0  0  0  0  0  0
  -50.3179   57.5133   60.3506 C   0  0  0  0  0  0  0  0  0  0  0  0
  -49.3107   57.4234   59.2089 C   0  0  0  0  0  0  0  0  0  0  0  0
  -48.3617   56.2407   59.3211 C   0  0  0  0  0  0  0  0  0  0  0  0
  -47.4084   56.0570   58.1498 C   0  0  0  0  0  0  0  0  0  0  0  0
  -47.6524   57.0381   57.0446 C   0  0  0  0  0  0  0  0  0  0  0  0
  -39.2858   60.9075   66.1996 O   0  0  0  0  0  0  0  0  0  0  0  0
  -37.8692   60.6786   66.0332 C   0  0  0  0  0  0  0  0  0  0  0  0
  -37.2447   61.6932   65.0990 C   0  0  0  0  0  0  0  0  0  0  0  0
  -36.9835   62.9282   65.7795 O   0  0  0  0  0  0  0  0  0  0  0  0
  -36.3368   62.7773   66.4865 H   0  0  0  0  0  0  0  0  0  0  0  0
  -35.9696   61.1898   64.4641 C   0  0  0  0  0  0  0  0  0  0  0  0
  -35.9011   59.7432   64.4681 O   0  0  0  0  0  0  0  0  0  0  0  0
  -36.1891   58.6449   63.3336 P   0  0  0  0  0  0  0  0  0  0  0  0
  -36.8484   57.4363   63.9958 O   0  0  0  0  0  0  0  0  0  0  0  0
  -34.8988   58.2164   62.7506 O   0  0  0  0  0  0  0  0  0  0  0  0
  -34.3232   57.8768   63.4536 H   0  0  0  0  0  0  0  0  0  0  0  0
  -37.1972   59.2289   62.1727 O   0  0  0  0  0  0  0  0  0  0  0  0
  -37.8707   58.4414   61.1534 C   0  0  0  0  0  0  0  0  0  0  0  0
  -39.2434   59.0051   60.8812 C   0  0  0  0  0  0  0  0  0  0  0  0
  -40.4211   58.1957   61.3917 N   0  0  0  0  0  0  0  0  0  0  0  0
  -41.1937   58.9770   62.4055 C   0  0  0  0  0  0  0  0  0  0  0  0
  -39.9025   56.9496   62.0312 C   0  0  0  0  0  0  0  0  0  0  0  0
  -41.3383   57.8295   60.2599 C   0  0  0  0  0  0  0  0  0  0  0  0
 34 33  1  0  0  0
 34 35  1  0  0  0
 34 36  1  0  0  0
 34 37  1  0  0  0
 22 23  1  0  0  0
 22 25  1  0  0  0
 22 21  1  0  0  0
 23 24  1  0  0  0
 27 26  1  0  0  0
 27 28  2  0  0  0
 27 31  1  0  0  0
 27 29  1  0  0  0
 25 26  1  0  0  0
 32 33  1  0  0  0
 32 31  1  0  0  0
 29 30  1  0  0  0
 20 21  1  0  0  0
 20  2  1  0  0  0
  1  2  2  0  0  0
  2  3  1  0  0  0
  3  4  1  0  0  0
  4  5  1  0  0  0
  5  6  1  0  0  0
  6  7  1  0  0  0
  7  8  1  0  0  0
  8  9  1  0  0  0
  9 10  1  0  0  0
 10 11  2  0  0  0
 11 12  1  0  0  0
 12 13  1  0  0  0
 13 14  1  0  0  0
 14 15  1  0  0  0
 15 16  1  0  0  0
 16 17  1  0  0  0
 17 18  1  0  0  0
 18 19  1  0  0  0
M  CHG 1  28  -1
M  END
> <minimizedAffinity>
-8.02476

> <CNNscore>
0.5591020584

> <CNNaffinity>
6.7991600037

> <CNN_VS>
3.8014242649

> <CNNaffinity_variance>
0.2184826583

$$$$
