/media/chris/experiments/cd1a-new-docking/inputs/ligands/4x6e_ligand.pdb


 37 36  0  0  0  0  0  0  0  0999 V2000
  -42.3576   55.6260   64.8057 O   0  0  0  0  0  0  0  0  0  0  0  0
  -42.4898   56.7078   65.3222 C   0  0  0  0  0  0  0  0  0  0  0  0
  -43.4918   57.0449   66.3835 C   0  0  0  0  0  0  0  0  0  0  0  0
  -44.8949   57.2706   65.8332 C   0  0  0  0  0  0  0  0  0  0  0  0
  -45.8464   57.9466   66.8054 C   0  0  0  0  0  0  0  0  0  0  0  0
  -46.3964   59.2663   66.2938 C   0  0  0  0  0  0  0  0  0  0  0  0
  -46.7059   59.2421   64.8068 C   0  0  0  0  0  0  0  0  0  0  0  0
  -47.0761   60.6096   64.2774 C   0  0  0  0  0  0  0  0  0  0  0  0
  -48.4522   60.6959   63.6488 C   0  0  0  0  0  0  0  0  0  0  0  0
  -49.5627   60.4171   64.5876 C   0  0  0  0  0  0  0  0  0  0  0  0
  -50.3980   59.4010   64.5210 C   0  0  0  0  0  0  0  0  0  0  0  0
  -50.3910   58.2901   63.5218 C   0  0  0  0  0  0  0  0  0  0  0  0
  -51.0553   58.7469   62.2219 C   0  0  0  0  0  0  0  0  0  0  0  0
  -50.1886   58.6434   60.9754 C   0  0  0  0  0  0  0  0  0  0  0  0
  -49.9086   57.2222   60.5016 C   0  0  0  0  0  0  0  0  0  0  0  0
  -49.1660   57.1589   59.1710 C   0  0  0  0  0  0  0  0  0  0  0  0
  -47.9837   56.2027   59.1745 C   0  0  0  0  0  0  0  0  0  0  0  0
  -47.4032   55.8796   57.8060 C   0  0  0  0  0  0  0  0  0  0  0  0
  -47.4411   57.0480   56.8696 C   0  0  0  0  0  0  0  0  0  0  0  0
  -41.7435   57.7768   65.0287 O   0  0  0  0  0  0  0  0  0  0  0  0
  -41.3870   58.6672   66.1089 C   0  0  0  0  0  0  0  0  0  0  0  0
  -40.8781   59.9966   65.5930 C   0  0  0  0  0  0  0  0  0  0  0  0
  -41.4228   61.0860   66.3500 O   0  0  0  0  0  0  0  0  0  0  0  0
  -41.1247   61.0207   67.2707 H   0  0  0  0  0  0  0  0  0  0  0  0
  -39.3698   60.0832   65.6014 C   0  0  0  0  0  0  0  0  0  0  0  0
  -38.8781   61.0048   64.5982 O   0  0  0  0  0  0  0  0  0  0  0  0
  -37.5673   60.9948   63.6720 P   0  0  0  0  0  0  0  0  0  0  0  0
  -36.4901   61.8316   64.3600 O   0  0  0  0  0  0  0  0  0  0  0  0
  -37.8981   61.6270   62.3761 O   0  0  0  0  0  0  0  0  0  0  0  0
  -38.2328   62.5244   62.5302 H   0  0  0  0  0  0  0  0  0  0  0  0
  -36.9949   59.4683   63.4555 O   0  0  0  0  0  0  0  0  0  0  0  0
  -37.3773   58.5572   62.3894 C   0  0  0  0  0  0  0  0  0  0  0  0
  -38.6909   57.8918   62.7180 C   0  0  0  0  0  0  0  0  0  0  0  0
  -39.7802   57.9877   61.6660 N   0  0  0  0  0  0  0  0  0  0  0  0
  -39.1821   58.0626   60.2979 C   0  0  0  0  0  0  0  0  0  0  0  0
  -40.5773   59.2257   61.9157 C   0  0  0  0  0  0  0  0  0  0  0  0
  -40.6853   56.7908   61.7346 C   0  0  0  0  0  0  0  0  0  0  0  0
 34 33  1  0  0  0
 34 35  1  0  0  0
 34 36  1  0  0  0
 34 37  1  0  0  0
 22 23  1  0  0  0
 22 25  1  0  0  0
 22 21  1  0  0  0
 23 24  1  0  0  0
 27 26  1  0  0  0
 27 28  2  0  0  0
 27 31  1  0  0  0
 27 29  1  0  0  0
 25 26  1  0  0  0
 32 33  1  0  0  0
 32 31  1  0  0  0
 29 30  1  0  0  0
 20 21  1  0  0  0
 20  2  1  0  0  0
  1  2  2  0  0  0
  2  3  1  0  0  0
  3  4  1  0  0  0
  4  5  1  0  0  0
  5  6  1  0  0  0
  6  7  1  0  0  0
  7  8  1  0  0  0
  8  9  1  0  0  0
  9 10  1  0  0  0
 10 11  2  0  0  0
 11 12  1  0  0  0
 12 13  1  0  0  0
 13 14  1  0  0  0
 14 15  1  0  0  0
 15 16  1  0  0  0
 16 17  1  0  0  0
 17 18  1  0  0  0
 18 19  1  0  0  0
M  CHG 1  28  -1
M  END
> <minimizedAffinity>
-7.90885

> <CNNscore>
0.8217346072

> <CNNaffinity>
7.1126580238

> <CNN_VS>
5.8447170258

> <CNNaffinity_variance>
0.3606562912

$$$$
/media/chris/experiments/cd1a-new-docking/inputs/ligands/4x6e_ligand.pdb


 37 36  0  0  0  0  0  0  0  0999 V2000
  -41.3274   56.7505   63.3637 O   0  0  0  0  0  0  0  0  0  0  0  0
  -40.6654   57.5825   63.9330 C   0  0  0  0  0  0  0  0  0  0  0  0
  -41.1276   58.4156   65.0889 C   0  0  0  0  0  0  0  0  0  0  0  0
  -42.5480   58.0884   65.5336 C   0  0  0  0  0  0  0  0  0  0  0  0
  -43.1665   59.1212   66.4601 C   0  0  0  0  0  0  0  0  0  0  0  0
  -44.6300   59.3986   66.1649 C   0  0  0  0  0  0  0  0  0  0  0  0
  -45.2503   58.3735   65.2312 C   0  0  0  0  0  0  0  0  0  0  0  0
  -46.6388   57.9657   65.6708 C   0  0  0  0  0  0  0  0  0  0  0  0
  -47.7590   58.4674   64.7822 C   0  0  0  0  0  0  0  0  0  0  0  0
  -49.1147   58.1277   65.2709 C   0  0  0  0  0  0  0  0  0  0  0  0
  -50.2508   58.5886   64.7896 C   0  0  0  0  0  0  0  0  0  0  0  0
  -50.4313   59.5141   63.6305 C   0  0  0  0  0  0  0  0  0  0  0  0
  -50.8112   58.7221   62.3784 C   0  0  0  0  0  0  0  0  0  0  0  0
  -50.1453   59.1811   61.0895 C   0  0  0  0  0  0  0  0  0  0  0  0
  -50.0969   58.1357   59.9816 C   0  0  0  0  0  0  0  0  0  0  0  0
  -49.3887   56.8480   60.3898 C   0  0  0  0  0  0  0  0  0  0  0  0
  -48.3912   56.3445   59.3586 C   0  0  0  0  0  0  0  0  0  0  0  0
  -48.1953   57.2447   58.1480 C   0  0  0  0  0  0  0  0  0  0  0  0
  -48.1158   56.4792   56.8630 C   0  0  0  0  0  0  0  0  0  0  0  0
  -39.4005   57.8792   63.6201 O   0  0  0  0  0  0  0  0  0  0  0  0
  -38.8848   57.3903   62.3624 C   0  0  0  0  0  0  0  0  0  0  0  0
  -38.0917   58.4533   61.6321 C   0  0  0  0  0  0  0  0  0  0  0  0
  -38.0484   58.1875   60.2235 O   0  0  0  0  0  0  0  0  0  0  0  0
  -38.9471   58.2225   59.8602 H   0  0  0  0  0  0  0  0  0  0  0  0
  -38.6340   59.8441   61.8647 C   0  0  0  0  0  0  0  0  0  0  0  0
  -37.6424   60.7159   62.4598 O   0  0  0  0  0  0  0  0  0  0  0  0
  -37.5960   61.5037   63.8573 P   0  0  0  0  0  0  0  0  0  0  0  0
  -38.8467   61.1364   64.6542 O   0  0  0  0  0  0  0  0  0  0  0  0
  -37.6228   62.9570   63.5830 O   0  0  0  0  0  0  0  0  0  0  0  0
  -38.4136   63.1737   63.0647 H   0  0  0  0  0  0  0  0  0  0  0  0
  -36.2680   61.0927   64.7362 O   0  0  0  0  0  0  0  0  0  0  0  0
  -34.9038   61.5181   64.4696 C   0  0  0  0  0  0  0  0  0  0  0  0
  -34.3045   62.1502   65.7015 C   0  0  0  0  0  0  0  0  0  0  0  0
  -33.9526   63.6230   65.6036 N   0  0  0  0  0  0  0  0  0  0  0  0
  -32.4734   63.8159   65.7023 C   0  0  0  0  0  0  0  0  0  0  0  0
  -34.6128   64.3474   66.7305 C   0  0  0  0  0  0  0  0  0  0  0  0
  -34.4298   64.1928   64.2982 C   0  0  0  0  0  0  0  0  0  0  0  0
 34 33  1  0  0  0
 34 35  1  0  0  0
 34 36  1  0  0  0
 34 37  1  0  0  0
 22 23  1  0  0  0
 22 25  1  0  0  0
 22 21  1  0  0  0
 23 24  1  0  0  0
 27 26  1  0  0  0
 27 28  2  0  0  0
 27 31  1  0  0  0
 27 29  1  0  0  0
 25 26  1  0  0  0
 32 33  1  0  0  0
 32 31  1  0  0  0
 29 30  1  0  0  0
 20 21  1  0  0  0
 20  2  1  0  0  0
  1  2  2  0  0  0
  2  3  1  0  0  0
  3  4  1  0  0  0
  4  5  1  0  0  0
  5  6  1  0  0  0
  6  7  1  0  0  0
  7  8  1  0  0  0
  8  9  1  0  0  0
  9 10  1  0  0  0
 10 11  2  0  0  0
 11 12  1  0  0  0
 12 13  1  0  0  0
 13 14  1  0  0  0
 14 15  1  0  0  0
 15 16  1  0  0  0
 16 17  1  0  0  0
 17 18  1  0  0  0
 18 19  1  0  0  0
M  CHG 1  28  -1
M  END
> <minimizedAffinity>
-7.64450

> <CNNscore>
0.7578551769

> <CNNaffinity>
6.6733436584

> <CNN_VS>
5.0574278831

> <CNNaffinity_variance>
0.3229963183

$$$$
/media/chris/experiments/cd1a-new-docking/inputs/ligands/4x6e_ligand.pdb


 37 36  0  0  0  0  0  0  0  0999 V2000
  -42.2231   55.6591   64.5170 O   0  0  0  0  0  0  0  0  0  0  0  0
  -42.3086   56.7426   65.0398 C   0  0  0  0  0  0  0  0  0  0  0  0
  -43.2271   57.0889   66.1712 C   0  0  0  0  0  0  0  0  0  0  0  0
  -44.6575   57.3603   65.7207 C   0  0  0  0  0  0  0  0  0  0  0  0
  -45.5132   58.0741   66.7530 C   0  0  0  0  0  0  0  0  0  0  0  0
  -46.1042   59.3793   66.2500 C   0  0  0  0  0  0  0  0  0  0  0  0
  -46.6042   59.2900   64.8184 C   0  0  0  0  0  0  0  0  0  0  0  0
  -47.0037   60.6404   64.2668 C   0  0  0  0  0  0  0  0  0  0  0  0
  -48.4216   60.7160   63.7378 C   0  0  0  0  0  0  0  0  0  0  0  0
  -49.4553   60.3317   64.7257 C   0  0  0  0  0  0  0  0  0  0  0  0
  -50.3229   59.3490   64.5983 C   0  0  0  0  0  0  0  0  0  0  0  0
  -50.4344   58.3844   63.4626 C   0  0  0  0  0  0  0  0  0  0  0  0
  -50.9708   59.0950   62.2188 C   0  0  0  0  0  0  0  0  0  0  0  0
  -50.1467   58.9061   60.9537 C   0  0  0  0  0  0  0  0  0  0  0  0
  -49.9120   57.4559   60.5482 C   0  0  0  0  0  0  0  0  0  0  0  0
  -49.2618   57.3044   59.1770 C   0  0  0  0  0  0  0  0  0  0  0  0
  -48.1003   56.3234   59.1551 C   0  0  0  0  0  0  0  0  0  0  0  0
  -47.6208   55.9123   57.7711 C   0  0  0  0  0  0  0  0  0  0  0  0
  -47.4108   57.0819   56.8592 C   0  0  0  0  0  0  0  0  0  0  0  0
  -41.5777   57.8053   64.6900 O   0  0  0  0  0  0  0  0  0  0  0  0
  -41.0400   58.6308   65.7465 C   0  0  0  0  0  0  0  0  0  0  0  0
  -40.6050   59.9861   65.2308 C   0  0  0  0  0  0  0  0  0  0  0  0
  -41.1884   61.0435   66.0041 O   0  0  0  0  0  0  0  0  0  0  0  0
  -40.8715   60.9875   66.9192 H   0  0  0  0  0  0  0  0  0  0  0  0
  -39.1027   60.1456   65.2139 C   0  0  0  0  0  0  0  0  0  0  0  0
  -38.6917   61.2897   64.4267 O   0  0  0  0  0  0  0  0  0  0  0  0
  -37.6383   61.4533   63.2269 P   0  0  0  0  0  0  0  0  0  0  0  0
  -38.2579   60.8588   61.9632 O   0  0  0  0  0  0  0  0  0  0  0  0
  -36.4188   60.6848   63.5592 O   0  0  0  0  0  0  0  0  0  0  0  0
  -36.6542   59.7573   63.7181 H   0  0  0  0  0  0  0  0  0  0  0  0
  -37.2828   63.0348   62.9494 O   0  0  0  0  0  0  0  0  0  0  0  0
  -36.0326   63.6987   63.2801 C   0  0  0  0  0  0  0  0  0  0  0  0
  -35.9238   63.8926   64.7723 C   0  0  0  0  0  0  0  0  0  0  0  0
  -34.5227   64.0441   65.3350 N   0  0  0  0  0  0  0  0  0  0  0  0
  -33.7477   62.7778   65.1588 C   0  0  0  0  0  0  0  0  0  0  0  0
  -34.6245   64.3521   66.7927 C   0  0  0  0  0  0  0  0  0  0  0  0
  -33.7941   65.1591   64.6404 C   0  0  0  0  0  0  0  0  0  0  0  0
 34 33  1  0  0  0
 34 35  1  0  0  0
 34 36  1  0  0  0
 34 37  1  0  0  0
 22 23  1  0  0  0
 22 25  1  0  0  0
 22 21  1  0  0  0
 23 24  1  0  0  0
 27 26  1  0  0  0
 27 28  2  0  0  0
 27 31  1  0  0  0
 27 29  1  0  0  0
 25 26  1  0  0  0
 32 33  1  0  0  0
 32 31  1  0  0  0
 29 30  1  0  0  0
 20 21  1  0  0  0
 20  2  1  0  0  0
  1  2  2  0  0  0
  2  3  1  0  0  0
  3  4  1  0  0  0
  4  5  1  0  0  0
  5  6  1  0  0  0
  6  7  1  0  0  0
  7  8  1  0  0  0
  8  9  1  0  0  0
  9 10  1  0  0  0
 10 11  2  0  0  0
 11 12  1  0  0  0
 12 13  1  0  0  0
 13 14  1  0  0  0
 14 15  1  0  0  0
 15 16  1  0  0  0
 16 17  1  0  0  0
 17 18  1  0  0  0
 18 19  1  0  0  0
M  CHG 1  28  -1
M  END
> <minimizedAffinity>
-7.89883

> <CNNscore>
0.7267436981

> <CNNaffinity>
6.4407753944

> <CNN_VS>
4.6807928085

> <CNNaffinity_variance>
0.0503120832

$$$$
/media/chris/experiments/cd1a-new-docking/inputs/ligands/4x6e_ligand.pdb


 37 36  0  0  0  0  0  0  0  0999 V2000
  -44.0071   60.1343   64.3254 O   0  0  0  0  0  0  0  0  0  0  0  0
  -43.5170   59.3501   65.0995 C   0  0  0  0  0  0  0  0  0  0  0  0
  -43.7644   57.8728   65.1099 C   0  0  0  0  0  0  0  0  0  0  0  0
  -44.7766   57.4419   66.1647 C   0  0  0  0  0  0  0  0  0  0  0  0
  -46.2058   57.8622   65.8681 C   0  0  0  0  0  0  0  0  0  0  0  0
  -46.7890   58.7993   66.9110 C   0  0  0  0  0  0  0  0  0  0  0  0
  -47.6487   59.8963   66.3068 C   0  0  0  0  0  0  0  0  0  0  0  0
  -47.3132   60.1512   64.8543 C   0  0  0  0  0  0  0  0  0  0  0  0
  -48.4832   60.0217   63.9002 C   0  0  0  0  0  0  0  0  0  0  0  0
  -49.3871   58.8891   64.2042 C   0  0  0  0  0  0  0  0  0  0  0  0
  -50.5070   58.5998   63.5744 C   0  0  0  0  0  0  0  0  0  0  0  0
  -51.0925   59.3131   62.3993 C   0  0  0  0  0  0  0  0  0  0  0  0
  -50.2349   59.0718   61.1559 C   0  0  0  0  0  0  0  0  0  0  0  0
  -50.5738   57.8177   60.3635 C   0  0  0  0  0  0  0  0  0  0  0  0
  -49.6594   56.6261   60.6214 C   0  0  0  0  0  0  0  0  0  0  0  0
  -48.5213   56.5022   59.6136 C   0  0  0  0  0  0  0  0  0  0  0  0
  -48.7460   57.2952   58.3358 C   0  0  0  0  0  0  0  0  0  0  0  0
  -47.6515   57.1648   57.2873 C   0  0  0  0  0  0  0  0  0  0  0  0
  -47.2259   55.7457   57.0669 C   0  0  0  0  0  0  0  0  0  0  0  0
  -42.6595   59.6864   66.0678 O   0  0  0  0  0  0  0  0  0  0  0  0
  -41.4814   58.8681   66.2391 C   0  0  0  0  0  0  0  0  0  0  0  0
  -40.3102   59.3999   65.4407 C   0  0  0  0  0  0  0  0  0  0  0  0
  -39.6209   60.4308   66.1609 O   0  0  0  0  0  0  0  0  0  0  0  0
  -39.2474   60.0612   66.9762 H   0  0  0  0  0  0  0  0  0  0  0  0
  -39.3312   58.3158   65.0547 C   0  0  0  0  0  0  0  0  0  0  0  0
  -38.3668   58.7835   64.0806 O   0  0  0  0  0  0  0  0  0  0  0  0
  -37.7390   58.1032   62.7695 P   0  0  0  0  0  0  0  0  0  0  0  0
  -38.6276   56.9263   62.3702 O   0  0  0  0  0  0  0  0  0  0  0  0
  -36.3939   57.5855   63.1023 O   0  0  0  0  0  0  0  0  0  0  0  0
  -36.4611   56.9631   63.8433 H   0  0  0  0  0  0  0  0  0  0  0  0
  -37.6698   59.1646   61.5151 O   0  0  0  0  0  0  0  0  0  0  0  0
  -38.6089   60.2441   61.2585 C   0  0  0  0  0  0  0  0  0  0  0  0
  -39.8647   59.7027   60.6216 C   0  0  0  0  0  0  0  0  0  0  0  0
  -41.1625   59.9472   61.3689 N   0  0  0  0  0  0  0  0  0  0  0  0
  -40.9194   60.7917   62.5784 C   0  0  0  0  0  0  0  0  0  0  0  0
  -41.7204   58.6308   61.8002 C   0  0  0  0  0  0  0  0  0  0  0  0
  -42.1568   60.6431   60.4836 C   0  0  0  0  0  0  0  0  0  0  0  0
 34 33  1  0  0  0
 34 35  1  0  0  0
 34 36  1  0  0  0
 34 37  1  0  0  0
 22 23  1  0  0  0
 22 25  1  0  0  0
 22 21  1  0  0  0
 23 24  1  0  0  0
 27 26  1  0  0  0
 27 28  2  0  0  0
 27 31  1  0  0  0
 27 29  1  0  0  0
 25 26  1  0  0  0
 32 33  1  0  0  0
 32 31  1  0  0  0
 29 30  1  0  0  0
 20 21  1  0  0  0
 20  2  1  0  0  0
  1  2  2  0  0  0
  2  3  1  0  0  0
  3  4  1  0  0  0
  4  5  1  0  0  0
  5  6  1  0  0  0
  6  7  1  0  0  0
  7  8  1  0  0  0
  8  9  1  0  0  0
  9 10  1  0  0  0
 10 11  2  0  0  0
 11 12  1  0  0  0
 12 13  1  0  0  0
 13 14  1  0  0  0
 14 15  1  0  0  0
 15 16  1  0  0  0
 16 17  1  0  0  0
 17 18  1  0  0  0
 18 19  1  0  0  0
M  CHG 1  28  -1
M  END
> <minimizedAffinity>
-7.76149

> <CNNscore>
0.6845650673

> <CNNaffinity>
7.0986571312

> <CNN_VS>
4.8594927788

> <CNNaffinity_variance>
0.1444763243

$$$$
/media/chris/experiments/cd1a-new-docking/inputs/ligands/4x6e_ligand.pdb


 37 36  0  0  0  0  0  0  0  0999 V2000
  -40.1027   58.7623   65.7743 O   0  0  0  0  0  0  0  0  0  0  0  0
  -40.2883   59.9196   66.0586 C   0  0  0  0  0  0  0  0  0  0  0  0
  -41.6185   60.5323   66.3727 C   0  0  0  0  0  0  0  0  0  0  0  0
  -42.7450   59.5093   66.4566 C   0  0  0  0  0  0  0  0  0  0  0  0
  -43.8690   59.7341   65.4598 C   0  0  0  0  0  0  0  0  0  0  0  0
  -45.2326   59.3178   65.9826 C   0  0  0  0  0  0  0  0  0  0  0  0
  -46.2554   59.1199   64.8770 C   0  0  0  0  0  0  0  0  0  0  0  0
  -47.4399   58.2980   65.3340 C   0  0  0  0  0  0  0  0  0  0  0  0
  -48.5736   59.1004   65.9398 C   0  0  0  0  0  0  0  0  0  0  0  0
  -49.9148   58.7223   65.4395 C   0  0  0  0  0  0  0  0  0  0  0  0
  -50.4635   59.1238   64.3114 C   0  0  0  0  0  0  0  0  0  0  0  0
  -49.8509   60.0068   63.2734 C   0  0  0  0  0  0  0  0  0  0  0  0
  -50.3370   59.5990   61.8816 C   0  0  0  0  0  0  0  0  0  0  0  0
  -51.0905   58.2787   61.8150 C   0  0  0  0  0  0  0  0  0  0  0  0
  -50.5913   57.3048   60.7545 C   0  0  0  0  0  0  0  0  0  0  0  0
  -49.4933   57.8813   59.8667 C   0  0  0  0  0  0  0  0  0  0  0  0
  -48.6809   56.8254   59.1338 C   0  0  0  0  0  0  0  0  0  0  0  0
  -48.1460   57.2437   57.7725 C   0  0  0  0  0  0  0  0  0  0  0  0
  -47.2396   56.2173   57.1654 C   0  0  0  0  0  0  0  0  0  0  0  0
  -39.3196   60.8358   66.1485 O   0  0  0  0  0  0  0  0  0  0  0  0
  -37.9587   60.3677   66.2747 C   0  0  0  0  0  0  0  0  0  0  0  0
  -36.9650   61.5064   66.1844 C   0  0  0  0  0  0  0  0  0  0  0  0
  -36.5811   61.9603   67.4894 O   0  0  0  0  0  0  0  0  0  0  0  0
  -36.1292   61.2432   67.9611 H   0  0  0  0  0  0  0  0  0  0  0  0
  -35.7297   61.1372   65.3970 C   0  0  0  0  0  0  0  0  0  0  0  0
  -35.7900   61.6327   64.0374 O   0  0  0  0  0  0  0  0  0  0  0  0
  -36.7231   62.7288   63.3275 P   0  0  0  0  0  0  0  0  0  0  0  0
  -35.8613   63.5308   62.3537 O   0  0  0  0  0  0  0  0  0  0  0  0
  -37.2443   63.6487   64.3620 O   0  0  0  0  0  0  0  0  0  0  0  0
  -36.5026   64.0513   64.8402 H   0  0  0  0  0  0  0  0  0  0  0  0
  -37.9510   62.0233   62.4913 O   0  0  0  0  0  0  0  0  0  0  0  0
  -38.3883   60.6430   62.6206 C   0  0  0  0  0  0  0  0  0  0  0  0
  -38.7306   60.0752   61.2653 C   0  0  0  0  0  0  0  0  0  0  0  0
  -40.0160   59.2744   61.1718 N   0  0  0  0  0  0  0  0  0  0  0  0
  -40.4763   58.8616   62.5330 C   0  0  0  0  0  0  0  0  0  0  0  0
  -39.7580   58.0512   60.3548 C   0  0  0  0  0  0  0  0  0  0  0  0
  -41.0974   60.0888   60.5206 C   0  0  0  0  0  0  0  0  0  0  0  0
 34 33  1  0  0  0
 34 35  1  0  0  0
 34 36  1  0  0  0
 34 37  1  0  0  0
 22 23  1  0  0  0
 22 25  1  0  0  0
 22 21  1  0  0  0
 23 24  1  0  0  0
 27 26  1  0  0  0
 27 28  2  0  0  0
 27 31  1  0  0  0
 27 29  1  0  0  0
 25 26  1  0  0  0
 32 33  1  0  0  0
 32 31  1  0  0  0
 29 30  1  0  0  0
 20 21  1  0  0  0
 20  2  1  0  0  0
  1  2  2  0  0  0
  2  3  1  0  0  0
  3  4  1  0  0  0
  4  5  1  0  0  0
  5  6  1  0  0  0
  6  7  1  0  0  0
  7  8  1  0  0  0
  8  9  1  0  0  0
  9 10  1  0  0  0
 10 11  2  0  0  0
 11 12  1  0  0  0
 12 13  1  0  0  0
 13 14  1  0  0  0
 14 15  1  0  0  0
 15 16  1  0  0  0
 16 17  1  0  0  0
 17 18  1  0  0  0
 18 19  1  0  0  0
M  CHG 1  28  -1
M  END
> <minimizedAffinity>
-8.13674

> <CNNscore>
0.6797294617

> <CNNaffinity>
6.8208723068

> <CNN_VS>
4.6363477707

> <CNNaffinity_variance>
0.2182025462

$$$$
/media/chris/experiments/cd1a-new-docking/inputs/ligands/4x6e_ligand.pdb


 37 36  0  0  0  0  0  0  0  0999 V2000
  -41.1343   57.8661   61.8575 O   0  0  0  0  0  0  0  0  0  0  0  0
  -41.8977   58.3722   62.6421 C   0  0  0  0  0  0  0  0  0  0  0  0
  -43.3887   58.4046   62.5026 C   0  0  0  0  0  0  0  0  0  0  0  0
  -44.1148   58.4689   63.8410 C   0  0  0  0  0  0  0  0  0  0  0  0
  -45.1601   59.5673   63.9329 C   0  0  0  0  0  0  0  0  0  0  0  0
  -45.9414   59.5506   65.2349 C   0  0  0  0  0  0  0  0  0  0  0  0
  -47.0025   58.4642   65.2748 C   0  0  0  0  0  0  0  0  0  0  0  0
  -48.2556   58.9147   65.9918 C   0  0  0  0  0  0  0  0  0  0  0  0
  -49.5478   58.3794   65.4090 C   0  0  0  0  0  0  0  0  0  0  0  0
  -50.5631   59.4215   65.1344 C   0  0  0  0  0  0  0  0  0  0  0  0
  -50.8646   59.9183   63.9525 C   0  0  0  0  0  0  0  0  0  0  0  0
  -50.2891   59.5207   62.6322 C   0  0  0  0  0  0  0  0  0  0  0  0
  -51.1326   58.4106   62.0029 C   0  0  0  0  0  0  0  0  0  0  0  0
  -50.4058   57.5304   60.9967 C   0  0  0  0  0  0  0  0  0  0  0  0
  -49.9510   58.2422   59.7283 C   0  0  0  0  0  0  0  0  0  0  0  0
  -49.1940   57.3385   58.7607 C   0  0  0  0  0  0  0  0  0  0  0  0
  -48.1421   56.4687   59.4309 C   0  0  0  0  0  0  0  0  0  0  0  0
  -47.1756   55.7707   58.4860 C   0  0  0  0  0  0  0  0  0  0  0  0
  -47.4226   56.1112   57.0484 C   0  0  0  0  0  0  0  0  0  0  0  0
  -41.5216   58.9760   63.7734 O   0  0  0  0  0  0  0  0  0  0  0  0
  -40.2678   58.5737   64.3676 C   0  0  0  0  0  0  0  0  0  0  0  0
  -39.3423   59.7540   64.5734 C   0  0  0  0  0  0  0  0  0  0  0  0
  -40.0072   60.9888   64.2739 O   0  0  0  0  0  0  0  0  0  0  0  0
  -40.7473   61.1147   64.8881 H   0  0  0  0  0  0  0  0  0  0  0  0
  -38.7799   59.8129   65.9744 C   0  0  0  0  0  0  0  0  0  0  0  0
  -38.2271   61.1167   66.2781 O   0  0  0  0  0  0  0  0  0  0  0  0
  -36.7995   61.7828   65.9711 P   0  0  0  0  0  0  0  0  0  0  0  0
  -35.8631   60.6901   65.4581 O   0  0  0  0  0  0  0  0  0  0  0  0
  -36.2470   62.3217   67.2331 O   0  0  0  0  0  0  0  0  0  0  0  0
  -36.1873   61.6102   67.8898 H   0  0  0  0  0  0  0  0  0  0  0  0
  -36.9176   62.9593   64.8279 O   0  0  0  0  0  0  0  0  0  0  0  0
  -35.9867   64.0592   64.6367 C   0  0  0  0  0  0  0  0  0  0  0  0
  -34.8514   63.6316   63.7397 C   0  0  0  0  0  0  0  0  0  0  0  0
  -33.4505   63.9768   64.2095 N   0  0  0  0  0  0  0  0  0  0  0  0
  -33.2183   63.4562   65.5916 C   0  0  0  0  0  0  0  0  0  0  0  0
  -33.3030   65.4629   64.2195 C   0  0  0  0  0  0  0  0  0  0  0  0
  -32.4244   63.3811   63.2882 C   0  0  0  0  0  0  0  0  0  0  0  0
 34 33  1  0  0  0
 34 35  1  0  0  0
 34 36  1  0  0  0
 34 37  1  0  0  0
 22 23  1  0  0  0
 22 25  1  0  0  0
 22 21  1  0  0  0
 23 24  1  0  0  0
 27 26  1  0  0  0
 27 28  2  0  0  0
 27 31  1  0  0  0
 27 29  1  0  0  0
 25 26  1  0  0  0
 32 33  1  0  0  0
 32 31  1  0  0  0
 29 30  1  0  0  0
 20 21  1  0  0  0
 20  2  1  0  0  0
  1  2  2  0  0  0
  2  3  1  0  0  0
  3  4  1  0  0  0
  4  5  1  0  0  0
  5  6  1  0  0  0
  6  7  1  0  0  0
  7  8  1  0  0  0
  8  9  1  0  0  0
  9 10  1  0  0  0
 10 11  2  0  0  0
 11 12  1  0  0  0
 12 13  1  0  0  0
 13 14  1  0  0  0
 14 15  1  0  0  0
 15 16  1  0  0  0
 16 17  1  0  0  0
 17 18  1  0  0  0
 18 19  1  0  0  0
M  CHG 1  28  -1
M  END
> <minimizedAffinity>
-8.08484

> <CNNscore>
0.6792839170

> <CNNaffinity>
6.3771276474

> <CNN_VS>
4.3318800926

> <CNNaffinity_variance>
0.3504331708

$$$$
/media/chris/experiments/cd1a-new-docking/inputs/ligands/4x6e_ligand.pdb


 37 36  0  0  0  0  0  0  0  0999 V2000
  -39.9337   60.1005   60.3788 O   0  0  0  0  0  0  0  0  0  0  0  0
  -41.1191   59.8902   60.4521 C   0  0  0  0  0  0  0  0  0  0  0  0
  -42.1775   60.9390   60.6053 C   0  0  0  0  0  0  0  0  0  0  0  0
  -43.0139   60.7666   61.8676 C   0  0  0  0  0  0  0  0  0  0  0  0
  -43.7705   62.0138   62.2912 C   0  0  0  0  0  0  0  0  0  0  0  0
  -44.8263   61.7497   63.3503 C   0  0  0  0  0  0  0  0  0  0  0  0
  -44.7951   60.3244   63.8749 C   0  0  0  0  0  0  0  0  0  0  0  0
  -45.9975   60.0051   64.7348 C   0  0  0  0  0  0  0  0  0  0  0  0
  -47.3124   60.5505   64.2155 C   0  0  0  0  0  0  0  0  0  0  0  0
  -48.3855   60.6091   65.2339 C   0  0  0  0  0  0  0  0  0  0  0  0
  -49.4326   59.8133   65.3040 C   0  0  0  0  0  0  0  0  0  0  0  0
  -49.7515   58.6595   64.4098 C   0  0  0  0  0  0  0  0  0  0  0  0
  -50.7818   59.0766   63.3591 C   0  0  0  0  0  0  0  0  0  0  0  0
  -50.8977   58.1518   62.1563 C   0  0  0  0  0  0  0  0  0  0  0  0
  -49.7319   58.2195   61.1770 C   0  0  0  0  0  0  0  0  0  0  0  0
  -49.8285   57.2032   60.0438 C   0  0  0  0  0  0  0  0  0  0  0  0
  -49.1144   57.6341   58.7725 C   0  0  0  0  0  0  0  0  0  0  0  0
  -48.0607   56.6655   58.2570 C   0  0  0  0  0  0  0  0  0  0  0  0
  -47.7155   56.8963   56.8178 C   0  0  0  0  0  0  0  0  0  0  0  0
  -41.6714   58.6747   60.3941 O   0  0  0  0  0  0  0  0  0  0  0  0
  -40.8478   57.5424   60.7495 C   0  0  0  0  0  0  0  0  0  0  0  0
  -41.1904   57.0117   62.1255 C   0  0  0  0  0  0  0  0  0  0  0  0
  -41.1478   55.5785   62.1505 O   0  0  0  0  0  0  0  0  0  0  0  0
  -40.2450   55.2785   61.9616 H   0  0  0  0  0  0  0  0  0  0  0  0
  -40.2827   57.5603   63.2014 C   0  0  0  0  0  0  0  0  0  0  0  0
  -40.6144   58.9292   63.5389 O   0  0  0  0  0  0  0  0  0  0  0  0
  -39.9773   59.9693   64.5821 P   0  0  0  0  0  0  0  0  0  0  0  0
  -39.7598   59.2426   65.9083 O   0  0  0  0  0  0  0  0  0  0  0  0
  -40.9404   61.0704   64.8013 O   0  0  0  0  0  0  0  0  0  0  0  0
  -41.7831   60.7055   65.1139 H   0  0  0  0  0  0  0  0  0  0  0  0
  -38.5317   60.5458   64.0505 O   0  0  0  0  0  0  0  0  0  0  0  0
  -37.2650   60.4550   64.7578 C   0  0  0  0  0  0  0  0  0  0  0  0
  -37.0888   61.6458   65.6672 C   0  0  0  0  0  0  0  0  0  0  0  0
  -36.1077   62.7087   65.2086 N   0  0  0  0  0  0  0  0  0  0  0  0
  -36.6895   63.5103   64.0888 C   0  0  0  0  0  0  0  0  0  0  0  0
  -34.8642   62.0351   64.7285 C   0  0  0  0  0  0  0  0  0  0  0  0
  -35.7667   63.6343   66.3414 C   0  0  0  0  0  0  0  0  0  0  0  0
 34 33  1  0  0  0
 34 35  1  0  0  0
 34 36  1  0  0  0
 34 37  1  0  0  0
 22 23  1  0  0  0
 22 25  1  0  0  0
 22 21  1  0  0  0
 23 24  1  0  0  0
 27 26  1  0  0  0
 27 28  2  0  0  0
 27 31  1  0  0  0
 27 29  1  0  0  0
 25 26  1  0  0  0
 32 33  1  0  0  0
 32 31  1  0  0  0
 29 30  1  0  0  0
 20 21  1  0  0  0
 20  2  1  0  0  0
  1  2  2  0  0  0
  2  3  1  0  0  0
  3  4  1  0  0  0
  4  5  1  0  0  0
  5  6  1  0  0  0
  6  7  1  0  0  0
  7  8  1  0  0  0
  8  9  1  0  0  0
  9 10  1  0  0  0
 10 11  2  0  0  0
 11 12  1  0  0  0
 12 13  1  0  0  0
 13 14  1  0  0  0
 14 15  1  0  0  0
 15 16  1  0  0  0
 16 17  1  0  0  0
 17 18  1  0  0  0
 18 19  1  0  0  0
M  CHG 1  28  -1
M  END
> <minimizedAffinity>
-7.92202

> <CNNscore>
0.6267530322

> <CNNaffinity>
6.5925016403

> <CNN_VS>
4.1318702698

> <CNNaffinity_variance>
0.1918341815

$$$$
/media/chris/experiments/cd1a-new-docking/inputs/ligands/4x6e_ligand.pdb


 37 36  0  0  0  0  0  0  0  0999 V2000
  -40.5328   58.3701   64.7186 O   0  0  0  0  0  0  0  0  0  0  0  0
  -41.6433   58.4099   64.2499 C   0  0  0  0  0  0  0  0  0  0  0  0
  -42.8528   57.7424   64.8291 C   0  0  0  0  0  0  0  0  0  0  0  0
  -44.1183   58.5824   64.7048 C   0  0  0  0  0  0  0  0  0  0  0  0
  -44.7271   58.9960   66.0336 C   0  0  0  0  0  0  0  0  0  0  0  0
  -45.8655   58.0969   66.4827 C   0  0  0  0  0  0  0  0  0  0  0  0
  -46.9576   57.9569   65.4362 C   0  0  0  0  0  0  0  0  0  0  0  0
  -48.3191   58.3335   65.9765 C   0  0  0  0  0  0  0  0  0  0  0  0
  -48.5578   59.8235   66.1138 C   0  0  0  0  0  0  0  0  0  0  0  0
  -48.5291   60.5599   64.8296 C   0  0  0  0  0  0  0  0  0  0  0  0
  -49.4853   60.5775   63.9240 C   0  0  0  0  0  0  0  0  0  0  0  0
  -50.8157   59.9019   64.0022 C   0  0  0  0  0  0  0  0  0  0  0  0
  -51.1778   59.2933   62.6464 C   0  0  0  0  0  0  0  0  0  0  0  0
  -50.1790   58.2857   62.0963 C   0  0  0  0  0  0  0  0  0  0  0  0
  -50.5980   57.6062   60.7981 C   0  0  0  0  0  0  0  0  0  0  0  0
  -49.7547   58.0175   59.5956 C   0  0  0  0  0  0  0  0  0  0  0  0
  -48.9784   56.8692   58.9707 C   0  0  0  0  0  0  0  0  0  0  0  0
  -48.0578   57.2540   57.8224 C   0  0  0  0  0  0  0  0  0  0  0  0
  -47.2088   56.1129   57.3526 C   0  0  0  0  0  0  0  0  0  0  0  0
  -41.9655   59.0745   63.1363 O   0  0  0  0  0  0  0  0  0  0  0  0
  -41.0107   60.0280   62.6203 C   0  0  0  0  0  0  0  0  0  0  0  0
  -40.4331   59.5794   61.2946 C   0  0  0  0  0  0  0  0  0  0  0  0
  -40.7883   60.4881   60.2436 O   0  0  0  0  0  0  0  0  0  0  0  0
  -40.4033   61.3595   60.4259 H   0  0  0  0  0  0  0  0  0  0  0  0
  -38.9309   59.4246   61.3389 C   0  0  0  0  0  0  0  0  0  0  0  0
  -38.4072   59.6354   62.6727 O   0  0  0  0  0  0  0  0  0  0  0  0
  -37.0469   59.1689   63.3853 P   0  0  0  0  0  0  0  0  0  0  0  0
  -36.2191   58.3857   62.3677 O   0  0  0  0  0  0  0  0  0  0  0  0
  -37.3854   58.2687   64.5092 O   0  0  0  0  0  0  0  0  0  0  0  0
  -37.9031   57.5183   64.1779 H   0  0  0  0  0  0  0  0  0  0  0  0
  -36.1670   60.4576   63.9049 O   0  0  0  0  0  0  0  0  0  0  0  0
  -36.5628   61.3994   64.9390 C   0  0  0  0  0  0  0  0  0  0  0  0
  -35.3818   61.7402   65.8138 C   0  0  0  0  0  0  0  0  0  0  0  0
  -34.9188   63.1851   65.7934 N   0  0  0  0  0  0  0  0  0  0  0  0
  -33.4336   63.2614   65.9461 C   0  0  0  0  0  0  0  0  0  0  0  0
  -35.5616   63.9084   66.9310 C   0  0  0  0  0  0  0  0  0  0  0  0
  -35.3079   63.8445   64.5010 C   0  0  0  0  0  0  0  0  0  0  0  0
 34 33  1  0  0  0
 34 35  1  0  0  0
 34 36  1  0  0  0
 34 37  1  0  0  0
 22 23  1  0  0  0
 22 25  1  0  0  0
 22 21  1  0  0  0
 23 24  1  0  0  0
 27 26  1  0  0  0
 27 28  2  0  0  0
 27 31  1  0  0  0
 27 29  1  0  0  0
 25 26  1  0  0  0
 32 33  1  0  0  0
 32 31  1  0  0  0
 29 30  1  0  0  0
 20 21  1  0  0  0
 20  2  1  0  0  0
  1  2  2  0  0  0
  2  3  1  0  0  0
  3  4  1  0  0  0
  4  5  1  0  0  0
  5  6  1  0  0  0
  6  7  1  0  0  0
  7  8  1  0  0  0
  8  9  1  0  0  0
  9 10  1  0  0  0
 10 11  2  0  0  0
 11 12  1  0  0  0
 12 13  1  0  0  0
 13 14  1  0  0  0
 14 15  1  0  0  0
 15 16  1  0  0  0
 16 17  1  0  0  0
 17 18  1  0  0  0
 18 19  1  0  0  0
M  CHG 1  28  -1
M  END
> <minimizedAffinity>
-7.45591

> <CNNscore>
0.6117064953

> <CNNaffinity>
6.5971832275

> <CNN_VS>
4.0355396271

> <CNNaffinity_variance>
0.5307182074

$$$$
/media/chris/experiments/cd1a-new-docking/inputs/ligands/4x6e_ligand.pdb


 37 36  0  0  0  0  0  0  0  0999 V2000
  -42.2870   56.4564   65.7251 O   0  0  0  0  0  0  0  0  0  0  0  0
  -42.5611   57.6271   65.8195 C   0  0  0  0  0  0  0  0  0  0  0  0
  -43.9234   58.1775   66.1108 C   0  0  0  0  0  0  0  0  0  0  0  0
  -44.0508   59.6624   65.7923 C   0  0  0  0  0  0  0  0  0  0  0  0
  -44.5897   59.9598   64.4035 C   0  0  0  0  0  0  0  0  0  0  0  0
  -46.0387   60.4138   64.4020 C   0  0  0  0  0  0  0  0  0  0  0  0
  -47.0040   59.3147   64.8117 C   0  0  0  0  0  0  0  0  0  0  0  0
  -47.7280   59.6399   66.0991 C   0  0  0  0  0  0  0  0  0  0  0  0
  -49.2293   59.7927   65.9621 C   0  0  0  0  0  0  0  0  0  0  0  0
  -49.8980   58.6347   65.3264 C   0  0  0  0  0  0  0  0  0  0  0  0
  -50.5600   58.6503   64.1879 C   0  0  0  0  0  0  0  0  0  0  0  0
  -50.7500   59.8135   63.2695 C   0  0  0  0  0  0  0  0  0  0  0  0
  -50.4354   59.4045   61.8296 C   0  0  0  0  0  0  0  0  0  0  0  0
  -50.9326   58.0259   61.4199 C   0  0  0  0  0  0  0  0  0  0  0  0
  -50.3359   57.4841   60.1265 C   0  0  0  0  0  0  0  0  0  0  0  0
  -49.3034   56.3833   60.3462 C   0  0  0  0  0  0  0  0  0  0  0  0
  -48.2585   56.2953   59.2452 C   0  0  0  0  0  0  0  0  0  0  0  0
  -48.4904   57.2105   58.0523 C   0  0  0  0  0  0  0  0  0  0  0  0
  -47.3933   57.1275   57.0359 C   0  0  0  0  0  0  0  0  0  0  0  0
  -41.6752   58.6190   65.6886 O   0  0  0  0  0  0  0  0  0  0  0  0
  -40.8855   58.6623   64.4798 C   0  0  0  0  0  0  0  0  0  0  0  0
  -40.3858   60.0614   64.1880 C   0  0  0  0  0  0  0  0  0  0  0  0
  -40.7732   60.9737   65.2245 O   0  0  0  0  0  0  0  0  0  0  0  0
  -40.3598   60.7074   66.0606 H   0  0  0  0  0  0  0  0  0  0  0  0
  -38.8872   60.1158   64.0047 C   0  0  0  0  0  0  0  0  0  0  0  0
  -38.3232   61.3366   64.5424 O   0  0  0  0  0  0  0  0  0  0  0  0
  -37.2086   61.6088   65.6648 P   0  0  0  0  0  0  0  0  0  0  0  0
  -37.5760   60.8009   66.9083 O   0  0  0  0  0  0  0  0  0  0  0  0
  -37.2295   63.0460   66.0143 O   0  0  0  0  0  0  0  0  0  0  0  0
  -38.1190   63.2937   66.3116 H   0  0  0  0  0  0  0  0  0  0  0  0
  -35.7151   61.1465   65.1545 O   0  0  0  0  0  0  0  0  0  0  0  0
  -34.4598   61.7991   65.4884 C   0  0  0  0  0  0  0  0  0  0  0  0
  -34.1699   62.9062   64.5054 C   0  0  0  0  0  0  0  0  0  0  0  0
  -33.4491   64.1247   65.0513 N   0  0  0  0  0  0  0  0  0  0  0  0
  -33.5225   65.2567   64.0775 C   0  0  0  0  0  0  0  0  0  0  0  0
  -32.0159   63.7704   65.2765 C   0  0  0  0  0  0  0  0  0  0  0  0
  -34.0637   64.5620   66.3503 C   0  0  0  0  0  0  0  0  0  0  0  0
 34 33  1  0  0  0
 34 35  1  0  0  0
 34 36  1  0  0  0
 34 37  1  0  0  0
 22 23  1  0  0  0
 22 25  1  0  0  0
 22 21  1  0  0  0
 23 24  1  0  0  0
 27 26  1  0  0  0
 27 28  2  0  0  0
 27 31  1  0  0  0
 27 29  1  0  0  0
 25 26  1  0  0  0
 32 33  1  0  0  0
 32 31  1  0  0  0
 29 30  1  0  0  0
 20 21  1  0  0  0
 20  2  1  0  0  0
  1  2  2  0  0  0
  2  3  1  0  0  0
  3  4  1  0  0  0
  4  5  1  0  0  0
  5  6  1  0  0  0
  6  7  1  0  0  0
  7  8  1  0  0  0
  8  9  1  0  0  0
  9 10  1  0  0  0
 10 11  2  0  0  0
 11 12  1  0  0  0
 12 13  1  0  0  0
 13 14  1  0  0  0
 14 15  1  0  0  0
 15 16  1  0  0  0
 16 17  1  0  0  0
 17 18  1  0  0  0
 18 19  1  0  0  0
M  CHG 1  28  -1
M  END
> <minimizedAffinity>
-7.98517

> <CNNscore>
0.6026649475

> <CNNaffinity>
6.1871600151

> <CNN_VS>
3.7287845612

> <CNNaffinity_variance>
0.1072430462

$$$$
