/media/chris/experiments/cd1a-new-docking/inputs/ligands/4x6e_ligand.pdb


 37 36  0  0  0  0  0  0  0  0999 V2000
  -42.1493   56.2157   64.4996 O   0  0  0  0  0  0  0  0  0  0  0  0
  -42.0482   57.2647   65.0862 C   0  0  0  0  0  0  0  0  0  0  0  0
  -42.6529   57.5727   66.4215 C   0  0  0  0  0  0  0  0  0  0  0  0
  -43.9797   58.3159   66.3217 C   0  0  0  0  0  0  0  0  0  0  0  0
  -45.1843   57.4174   66.0997 C   0  0  0  0  0  0  0  0  0  0  0  0
  -46.3074   57.6557   67.0937 C   0  0  0  0  0  0  0  0  0  0  0  0
  -47.3975   58.5626   66.5490 C   0  0  0  0  0  0  0  0  0  0  0  0
  -47.9000   58.1053   65.1978 C   0  0  0  0  0  0  0  0  0  0  0  0
  -47.8478   59.1596   64.1109 C   0  0  0  0  0  0  0  0  0  0  0  0
  -48.7756   60.2934   64.3252 C   0  0  0  0  0  0  0  0  0  0  0  0
  -50.0598   60.3108   64.0332 C   0  0  0  0  0  0  0  0  0  0  0  0
  -50.8719   59.1925   63.4651 C   0  0  0  0  0  0  0  0  0  0  0  0
  -50.7603   59.1828   61.9397 C   0  0  0  0  0  0  0  0  0  0  0  0
  -51.1228   57.8665   61.2677 C   0  0  0  0  0  0  0  0  0  0  0  0
  -50.2741   57.5076   60.0540 C   0  0  0  0  0  0  0  0  0  0  0  0
  -49.1569   56.5165   60.3634 C   0  0  0  0  0  0  0  0  0  0  0  0
  -48.2164   56.2695   59.1946 C   0  0  0  0  0  0  0  0  0  0  0  0
  -48.4339   57.1637   57.9831 C   0  0  0  0  0  0  0  0  0  0  0  0
  -47.3908   56.9709   56.9257 C   0  0  0  0  0  0  0  0  0  0  0  0
  -41.3621   58.3170   64.6307 O   0  0  0  0  0  0  0  0  0  0  0  0
  -40.0550   58.5647   65.1940 C   0  0  0  0  0  0  0  0  0  0  0  0
  -39.7577   60.0463   65.2870 C   0  0  0  0  0  0  0  0  0  0  0  0
  -40.7358   60.7187   66.0916 O   0  0  0  0  0  0  0  0  0  0  0  0
  -40.6982   60.3775   66.9988 H   0  0  0  0  0  0  0  0  0  0  0  0
  -38.3777   60.3278   65.8334 C   0  0  0  0  0  0  0  0  0  0  0  0
  -38.0396   61.7332   65.7434 O   0  0  0  0  0  0  0  0  0  0  0  0
  -36.6425   62.5169   65.8439 P   0  0  0  0  0  0  0  0  0  0  0  0
  -36.2572   62.6186   67.3187 O   0  0  0  0  0  0  0  0  0  0  0  0
  -36.8268   63.8842   65.3102 O   0  0  0  0  0  0  0  0  0  0  0  0
  -37.5347   64.3301   65.8010 H   0  0  0  0  0  0  0  0  0  0  0  0
  -35.4483   61.7239   65.0374 O   0  0  0  0  0  0  0  0  0  0  0  0
  -34.2273   62.3196   64.5204 C   0  0  0  0  0  0  0  0  0  0  0  0
  -33.4414   62.9540   65.6411 C   0  0  0  0  0  0  0  0  0  0  0  0
  -33.0518   64.4088   65.4556 N   0  0  0  0  0  0  0  0  0  0  0  0
  -33.6217   64.9455   64.1819 C   0  0  0  0  0  0  0  0  0  0  0  0
  -31.5622   64.5004   65.3975 C   0  0  0  0  0  0  0  0  0  0  0  0
  -33.5571   65.2394   66.6008 C   0  0  0  0  0  0  0  0  0  0  0  0
 34 33  1  0  0  0
 34 35  1  0  0  0
 34 36  1  0  0  0
 34 37  1  0  0  0
 22 23  1  0  0  0
 22 25  1  0  0  0
 22 21  1  0  0  0
 23 24  1  0  0  0
 27 26  1  0  0  0
 27 28  2  0  0  0
 27 31  1  0  0  0
 27 29  1  0  0  0
 25 26  1  0  0  0
 32 33  1  0  0  0
 32 31  1  0  0  0
 29 30  1  0  0  0
 20 21  1  0  0  0
 20  2  1  0  0  0
  1  2  2  0  0  0
  2  3  1  0  0  0
  3  4  1  0  0  0
  4  5  1  0  0  0
  5  6  1  0  0  0
  6  7  1  0  0  0
  7  8  1  0  0  0
  8  9  1  0  0  0
  9 10  1  0  0  0
 10 11  2  0  0  0
 11 12  1  0  0  0
 12 13  1  0  0  0
 13 14  1  0  0  0
 14 15  1  0  0  0
 15 16  1  0  0  0
 16 17  1  0  0  0
 17 18  1  0  0  0
 18 19  1  0  0  0
M  CHG 1  28  -1
M  END
> <minimizedAffinity>
-8.04416

> <CNNscore>
0.8258748651

> <CNNaffinity>
6.3819308281

> <CNN_VS>
5.2706761360

> <CNNaffinity_variance>
0.2005852163

$$$$
/media/chris/experiments/cd1a-new-docking/inputs/ligands/4x6e_ligand.pdb


 37 36  0  0  0  0  0  0  0  0999 V2000
  -41.5669   56.4372   62.9786 O   0  0  0  0  0  0  0  0  0  0  0  0
  -41.9470   57.3803   62.3299 C   0  0  0  0  0  0  0  0  0  0  0  0
  -43.2467   58.0990   62.5252 C   0  0  0  0  0  0  0  0  0  0  0  0
  -43.4960   58.5042   63.9730 C   0  0  0  0  0  0  0  0  0  0  0  0
  -44.1241   59.8774   64.1385 C   0  0  0  0  0  0  0  0  0  0  0  0
  -45.6415   59.8459   64.1885 C   0  0  0  0  0  0  0  0  0  0  0  0
  -46.1894   58.5289   64.7109 C   0  0  0  0  0  0  0  0  0  0  0  0
  -47.2606   58.7306   65.7594 C   0  0  0  0  0  0  0  0  0  0  0  0
  -48.6126   58.1446   65.4067 C   0  0  0  0  0  0  0  0  0  0  0  0
  -49.6872   59.1525   65.2600 C   0  0  0  0  0  0  0  0  0  0  0  0
  -50.5042   59.2717   64.2338 C   0  0  0  0  0  0  0  0  0  0  0  0
  -50.5599   58.4040   63.0185 C   0  0  0  0  0  0  0  0  0  0  0  0
  -50.4414   59.2586   61.7555 C   0  0  0  0  0  0  0  0  0  0  0  0
  -49.9769   58.5192   60.5092 C   0  0  0  0  0  0  0  0  0  0  0  0
  -49.3617   57.1487   60.7649 C   0  0  0  0  0  0  0  0  0  0  0  0
  -48.8133   56.4828   59.5072 C   0  0  0  0  0  0  0  0  0  0  0  0
  -48.5043   57.4585   58.3829 C   0  0  0  0  0  0  0  0  0  0  0  0
  -48.1188   56.8222   57.0557 C   0  0  0  0  0  0  0  0  0  0  0  0
  -47.0352   55.7979   57.1972 C   0  0  0  0  0  0  0  0  0  0  0  0
  -41.2498   57.9385   61.3360 O   0  0  0  0  0  0  0  0  0  0  0  0
  -41.9367   58.8692   60.4705 C   0  0  0  0  0  0  0  0  0  0  0  0
  -41.4167   60.2808   60.6423 C   0  0  0  0  0  0  0  0  0  0  0  0
  -42.4567   61.1626   61.0864 O   0  0  0  0  0  0  0  0  0  0  0  0
  -42.7684   60.8806   61.9606 H   0  0  0  0  0  0  0  0  0  0  0  0
  -40.2503   60.3569   61.5993 C   0  0  0  0  0  0  0  0  0  0  0  0
  -40.6891   60.4471   62.9765 O   0  0  0  0  0  0  0  0  0  0  0  0
  -39.8947   60.3848   64.3698 P   0  0  0  0  0  0  0  0  0  0  0  0
  -40.8504   60.8092   65.4836 O   0  0  0  0  0  0  0  0  0  0  0  0
  -38.7733   61.3482   64.3193 O   0  0  0  0  0  0  0  0  0  0  0  0
  -39.1175   62.2354   64.1316 H   0  0  0  0  0  0  0  0  0  0  0  0
  -39.3535   58.8643   64.6864 O   0  0  0  0  0  0  0  0  0  0  0  0
  -38.1463   58.5245   65.4212 C   0  0  0  0  0  0  0  0  0  0  0  0
  -37.2828   57.5952   64.6045 C   0  0  0  0  0  0  0  0  0  0  0  0
  -36.3191   58.2474   63.6306 N   0  0  0  0  0  0  0  0  0  0  0  0
  -36.9868   58.4878   62.3147 C   0  0  0  0  0  0  0  0  0  0  0  0
  -35.1563   57.3329   63.4251 C   0  0  0  0  0  0  0  0  0  0  0  0
  -35.8300   59.5601   64.1731 C   0  0  0  0  0  0  0  0  0  0  0  0
 34 33  1  0  0  0
 34 35  1  0  0  0
 34 36  1  0  0  0
 34 37  1  0  0  0
 22 23  1  0  0  0
 22 25  1  0  0  0
 22 21  1  0  0  0
 23 24  1  0  0  0
 27 26  1  0  0  0
 27 28  2  0  0  0
 27 31  1  0  0  0
 27 29  1  0  0  0
 25 26  1  0  0  0
 32 33  1  0  0  0
 32 31  1  0  0  0
 29 30  1  0  0  0
 20 21  1  0  0  0
 20  2  1  0  0  0
  1  2  2  0  0  0
  2  3  1  0  0  0
  3  4  1  0  0  0
  4  5  1  0  0  0
  5  6  1  0  0  0
  6  7  1  0  0  0
  7  8  1  0  0  0
  8  9  1  0  0  0
  9 10  1  0  0  0
 10 11  2  0  0  0
 11 12  1  0  0  0
 12 13  1  0  0  0
 13 14  1  0  0  0
 14 15  1  0  0  0
 15 16  1  0  0  0
 16 17  1  0  0  0
 17 18  1  0  0  0
 18 19  1  0  0  0
M  CHG 1  28  -1
M  END
> <minimizedAffinity>
-7.57331

> <CNNscore>
0.7783565521

> <CNNaffinity>
7.1226873398

> <CNN_VS>
5.5439901352

> <CNNaffinity_variance>
0.1533396542

$$$$
/media/chris/experiments/cd1a-new-docking/inputs/ligands/4x6e_ligand.pdb


 37 36  0  0  0  0  0  0  0  0999 V2000
  -40.2740   56.9279   62.4832 O   0  0  0  0  0  0  0  0  0  0  0  0
  -40.7635   56.9918   63.5837 C   0  0  0  0  0  0  0  0  0  0  0  0
  -41.9281   56.1806   64.0626 C   0  0  0  0  0  0  0  0  0  0  0  0
  -42.4724   56.6488   65.4069 C   0  0  0  0  0  0  0  0  0  0  0  0
  -43.9548   56.9807   65.3997 C   0  0  0  0  0  0  0  0  0  0  0  0
  -44.2662   58.3677   65.9340 C   0  0  0  0  0  0  0  0  0  0  0  0
  -45.5625   58.4204   66.7242 C   0  0  0  0  0  0  0  0  0  0  0  0
  -46.4881   57.2743   66.3820 C   0  0  0  0  0  0  0  0  0  0  0  0
  -47.9158   57.6803   66.0780 C   0  0  0  0  0  0  0  0  0  0  0  0
  -48.1606   59.1378   66.1672 C   0  0  0  0  0  0  0  0  0  0  0  0
  -49.2412   59.7694   65.7573 C   0  0  0  0  0  0  0  0  0  0  0  0
  -50.4671   59.1639   65.1545 C   0  0  0  0  0  0  0  0  0  0  0  0
  -50.9840   60.0444   64.0156 C   0  0  0  0  0  0  0  0  0  0  0  0
  -50.5915   59.5963   62.6153 C   0  0  0  0  0  0  0  0  0  0  0  0
  -50.8131   58.1165   62.3267 C   0  0  0  0  0  0  0  0  0  0  0  0
  -50.8312   57.7822   60.8388 C   0  0  0  0  0  0  0  0  0  0  0  0
  -49.4959   57.2873   60.3061 C   0  0  0  0  0  0  0  0  0  0  0  0
  -49.2758   57.4859   58.8138 C   0  0  0  0  0  0  0  0  0  0  0  0
  -48.0839   56.7390   58.2993 C   0  0  0  0  0  0  0  0  0  0  0  0
  -40.3254   57.7980   64.5551 O   0  0  0  0  0  0  0  0  0  0  0  0
  -39.2390   58.6985   64.2452 C   0  0  0  0  0  0  0  0  0  0  0  0
  -38.3181   58.8928   65.4311 C   0  0  0  0  0  0  0  0  0  0  0  0
  -36.9455   58.7278   65.0503 O   0  0  0  0  0  0  0  0  0  0  0  0
  -36.7044   59.4111   64.4054 H   0  0  0  0  0  0  0  0  0  0  0  0
  -38.4983   60.2399   66.0908 C   0  0  0  0  0  0  0  0  0  0  0  0
  -38.1421   61.3264   65.2020 O   0  0  0  0  0  0  0  0  0  0  0  0
  -36.7447   62.0497   64.8859 P   0  0  0  0  0  0  0  0  0  0  0  0
  -37.0378   63.4826   64.4443 O   0  0  0  0  0  0  0  0  0  0  0  0
  -36.0852   61.3386   63.7688 O   0  0  0  0  0  0  0  0  0  0  0  0
  -36.6757   61.3272   62.9993 H   0  0  0  0  0  0  0  0  0  0  0  0
  -35.7750   62.0921   66.2137 O   0  0  0  0  0  0  0  0  0  0  0  0
  -34.3269   62.2173   66.2086 C   0  0  0  0  0  0  0  0  0  0  0  0
  -33.9293   63.6700   66.1211 C   0  0  0  0  0  0  0  0  0  0  0  0
  -33.0714   64.0669   64.9341 N   0  0  0  0  0  0  0  0  0  0  0  0
  -31.7188   64.5111   65.3905 C   0  0  0  0  0  0  0  0  0  0  0  0
  -33.7379   65.1965   64.2198 C   0  0  0  0  0  0  0  0  0  0  0  0
  -32.9088   62.9087   63.9913 C   0  0  0  0  0  0  0  0  0  0  0  0
 34 33  1  0  0  0
 34 35  1  0  0  0
 34 36  1  0  0  0
 34 37  1  0  0  0
 22 23  1  0  0  0
 22 25  1  0  0  0
 22 21  1  0  0  0
 23 24  1  0  0  0
 27 26  1  0  0  0
 27 28  2  0  0  0
 27 31  1  0  0  0
 27 29  1  0  0  0
 25 26  1  0  0  0
 32 33  1  0  0  0
 32 31  1  0  0  0
 29 30  1  0  0  0
 20 21  1  0  0  0
 20  2  1  0  0  0
  1  2  2  0  0  0
  2  3  1  0  0  0
  3  4  1  0  0  0
  4  5  1  0  0  0
  5  6  1  0  0  0
  6  7  1  0  0  0
  7  8  1  0  0  0
  8  9  1  0  0  0
  9 10  1  0  0  0
 10 11  2  0  0  0
 11 12  1  0  0  0
 12 13  1  0  0  0
 13 14  1  0  0  0
 14 15  1  0  0  0
 15 16  1  0  0  0
 16 17  1  0  0  0
 17 18  1  0  0  0
 18 19  1  0  0  0
M  CHG 1  28  -1
M  END
> <minimizedAffinity>
-7.83736

> <CNNscore>
0.7245014310

> <CNNaffinity>
6.3795123100

> <CNN_VS>
4.6219658852

> <CNNaffinity_variance>
0.3006118834

$$$$
/media/chris/experiments/cd1a-new-docking/inputs/ligands/4x6e_ligand.pdb


 37 36  0  0  0  0  0  0  0  0999 V2000
  -42.2456   55.3151   64.9564 O   0  0  0  0  0  0  0  0  0  0  0  0
  -42.5204   56.4352   64.6035 C   0  0  0  0  0  0  0  0  0  0  0  0
  -43.7887   57.1609   64.9326 C   0  0  0  0  0  0  0  0  0  0  0  0
  -43.7351   57.8836   66.2733 C   0  0  0  0  0  0  0  0  0  0  0  0
  -44.5503   59.1644   66.3260 C   0  0  0  0  0  0  0  0  0  0  0  0
  -45.7902   59.0562   67.1961 C   0  0  0  0  0  0  0  0  0  0  0  0
  -47.0303   58.6607   66.4129 C   0  0  0  0  0  0  0  0  0  0  0  0
  -46.9749   59.1327   64.9771 C   0  0  0  0  0  0  0  0  0  0  0  0
  -48.1926   59.9078   64.5163 C   0  0  0  0  0  0  0  0  0  0  0  0
  -49.4432   59.5397   65.2181 C   0  0  0  0  0  0  0  0  0  0  0  0
  -50.6469   59.4934   64.6854 C   0  0  0  0  0  0  0  0  0  0  0  0
  -51.0150   59.7578   63.2615 C   0  0  0  0  0  0  0  0  0  0  0  0
  -50.8095   58.4963   62.4215 C   0  0  0  0  0  0  0  0  0  0  0  0
  -50.1252   58.7109   61.0793 C   0  0  0  0  0  0  0  0  0  0  0  0
  -50.3184   57.5852   60.0704 C   0  0  0  0  0  0  0  0  0  0  0  0
  -49.1890   57.4803   59.0510 C   0  0  0  0  0  0  0  0  0  0  0  0
  -48.2459   56.3139   59.2997 C   0  0  0  0  0  0  0  0  0  0  0  0
  -47.3280   55.9595   58.1393 C   0  0  0  0  0  0  0  0  0  0  0  0
  -47.5746   56.8032   56.9266 C   0  0  0  0  0  0  0  0  0  0  0  0
  -41.7176   57.2090   63.8670 O   0  0  0  0  0  0  0  0  0  0  0  0
  -41.1929   56.6594   62.6383 C   0  0  0  0  0  0  0  0  0  0  0  0
  -41.7651   57.3590   61.4235 C   0  0  0  0  0  0  0  0  0  0  0  0
  -42.1933   58.6884   61.7485 O   0  0  0  0  0  0  0  0  0  0  0  0
  -41.4286   59.2150   62.0290 H   0  0  0  0  0  0  0  0  0  0  0  0
  -40.7891   57.4126   60.2717 C   0  0  0  0  0  0  0  0  0  0  0  0
  -39.9915   58.6212   60.2980 O   0  0  0  0  0  0  0  0  0  0  0  0
  -38.4924   58.9158   60.7899 P   0  0  0  0  0  0  0  0  0  0  0  0
  -38.3603   60.4161   61.0464 O   0  0  0  0  0  0  0  0  0  0  0  0
  -37.5562   58.5390   59.7083 O   0  0  0  0  0  0  0  0  0  0  0  0
  -37.7811   59.0278   58.9012 H   0  0  0  0  0  0  0  0  0  0  0  0
  -38.1454   58.1078   62.1798 O   0  0  0  0  0  0  0  0  0  0  0  0
  -37.6701   58.7044   63.4172 C   0  0  0  0  0  0  0  0  0  0  0  0
  -38.6777   58.4911   64.5196 C   0  0  0  0  0  0  0  0  0  0  0  0
  -39.2841   59.7394   65.1333 N   0  0  0  0  0  0  0  0  0  0  0  0
  -40.3057   59.3743   66.1619 C   0  0  0  0  0  0  0  0  0  0  0  0
  -39.9449   60.5301   64.0521 C   0  0  0  0  0  0  0  0  0  0  0  0
  -38.2199   60.5773   65.7829 C   0  0  0  0  0  0  0  0  0  0  0  0
 34 33  1  0  0  0
 34 35  1  0  0  0
 34 36  1  0  0  0
 34 37  1  0  0  0
 22 23  1  0  0  0
 22 25  1  0  0  0
 22 21  1  0  0  0
 23 24  1  0  0  0
 27 26  1  0  0  0
 27 28  2  0  0  0
 27 31  1  0  0  0
 27 29  1  0  0  0
 25 26  1  0  0  0
 32 33  1  0  0  0
 32 31  1  0  0  0
 29 30  1  0  0  0
 20 21  1  0  0  0
 20  2  1  0  0  0
  1  2  2  0  0  0
  2  3  1  0  0  0
  3  4  1  0  0  0
  4  5  1  0  0  0
  5  6  1  0  0  0
  6  7  1  0  0  0
  7  8  1  0  0  0
  8  9  1  0  0  0
  9 10  1  0  0  0
 10 11  2  0  0  0
 11 12  1  0  0  0
 12 13  1  0  0  0
 13 14  1  0  0  0
 14 15  1  0  0  0
 15 16  1  0  0  0
 16 17  1  0  0  0
 17 18  1  0  0  0
 18 19  1  0  0  0
M  CHG 1  28  -1
M  END
> <minimizedAffinity>
-7.86890

> <CNNscore>
0.7071579099

> <CNNaffinity>
6.9771623611

> <CNN_VS>
4.9339556694

> <CNNaffinity_variance>
0.3538504243

$$$$
/media/chris/experiments/cd1a-new-docking/inputs/ligands/4x6e_ligand.pdb


 37 36  0  0  0  0  0  0  0  0999 V2000
  -42.5204   55.6639   64.8855 O   0  0  0  0  0  0  0  0  0  0  0  0
  -42.4827   56.7584   65.3906 C   0  0  0  0  0  0  0  0  0  0  0  0
  -43.3079   57.2024   66.5593 C   0  0  0  0  0  0  0  0  0  0  0  0
  -44.7365   57.5719   66.1785 C   0  0  0  0  0  0  0  0  0  0  0  0
  -45.1459   58.9792   66.5781 C   0  0  0  0  0  0  0  0  0  0  0  0
  -45.0878   59.9739   65.4322 C   0  0  0  0  0  0  0  0  0  0  0  0
  -46.0455   59.6332   64.3034 C   0  0  0  0  0  0  0  0  0  0  0  0
  -47.1066   60.6940   64.1134 C   0  0  0  0  0  0  0  0  0  0  0  0
  -48.1290   60.7761   65.2287 C   0  0  0  0  0  0  0  0  0  0  0  0
  -48.8603   59.5117   65.4710 C   0  0  0  0  0  0  0  0  0  0  0  0
  -50.0637   59.2140   65.0259 C   0  0  0  0  0  0  0  0  0  0  0  0
  -50.9372   60.0552   64.1528 C   0  0  0  0  0  0  0  0  0  0  0  0
  -51.1754   59.3541   62.8145 C   0  0  0  0  0  0  0  0  0  0  0  0
  -49.9675   58.6364   62.2302 C   0  0  0  0  0  0  0  0  0  0  0  0
  -50.2396   57.8536   60.9514 C   0  0  0  0  0  0  0  0  0  0  0  0
  -48.9786   57.3008   60.2955 C   0  0  0  0  0  0  0  0  0  0  0  0
  -49.0291   57.2991   58.7759 C   0  0  0  0  0  0  0  0  0  0  0  0
  -47.9953   56.4178   58.0908 C   0  0  0  0  0  0  0  0  0  0  0  0
  -47.6553   56.8893   56.7104 C   0  0  0  0  0  0  0  0  0  0  0  0
  -41.6794   57.7460   64.9846 O   0  0  0  0  0  0  0  0  0  0  0  0
  -41.1983   58.6761   65.9798 C   0  0  0  0  0  0  0  0  0  0  0  0
  -40.2886   59.7233   65.3732 C   0  0  0  0  0  0  0  0  0  0  0  0
  -41.0046   60.9373   65.1089 O   0  0  0  0  0  0  0  0  0  0  0  0
  -41.3279   61.3104   65.9439 H   0  0  0  0  0  0  0  0  0  0  0  0
  -39.0908   60.0253   66.2429 C   0  0  0  0  0  0  0  0  0  0  0  0
  -37.8814   60.1745   65.4602 O   0  0  0  0  0  0  0  0  0  0  0  0
  -37.6084   60.7761   63.9975 P   0  0  0  0  0  0  0  0  0  0  0  0
  -36.0978   60.9011   63.8069 O   0  0  0  0  0  0  0  0  0  0  0  0
  -38.2057   62.1274   63.9220 O   0  0  0  0  0  0  0  0  0  0  0  0
  -37.8345   62.6846   64.6239 H   0  0  0  0  0  0  0  0  0  0  0  0
  -38.2120   59.7970   62.8218 O   0  0  0  0  0  0  0  0  0  0  0  0
  -38.8462   60.2350   61.5895 C   0  0  0  0  0  0  0  0  0  0  0  0
  -40.1885   59.5656   61.4272 C   0  0  0  0  0  0  0  0  0  0  0  0
  -40.1779   58.1527   60.8739 N   0  0  0  0  0  0  0  0  0  0  0  0
  -41.4596   57.8592   60.1625 C   0  0  0  0  0  0  0  0  0  0  0  0
  -40.0234   57.1962   62.0104 C   0  0  0  0  0  0  0  0  0  0  0  0
  -39.0376   57.9721   59.9128 C   0  0  0  0  0  0  0  0  0  0  0  0
 34 33  1  0  0  0
 34 35  1  0  0  0
 34 36  1  0  0  0
 34 37  1  0  0  0
 22 23  1  0  0  0
 22 25  1  0  0  0
 22 21  1  0  0  0
 23 24  1  0  0  0
 27 26  1  0  0  0
 27 28  2  0  0  0
 27 31  1  0  0  0
 27 29  1  0  0  0
 25 26  1  0  0  0
 32 33  1  0  0  0
 32 31  1  0  0  0
 29 30  1  0  0  0
 20 21  1  0  0  0
 20  2  1  0  0  0
  1  2  2  0  0  0
  2  3  1  0  0  0
  3  4  1  0  0  0
  4  5  1  0  0  0
  5  6  1  0  0  0
  6  7  1  0  0  0
  7  8  1  0  0  0
  8  9  1  0  0  0
  9 10  1  0  0  0
 10 11  2  0  0  0
 11 12  1  0  0  0
 12 13  1  0  0  0
 13 14  1  0  0  0
 14 15  1  0  0  0
 15 16  1  0  0  0
 16 17  1  0  0  0
 17 18  1  0  0  0
 18 19  1  0  0  0
M  CHG 1  28  -1
M  END
> <minimizedAffinity>
-7.77658

> <CNNscore>
0.6839758754

> <CNNaffinity>
6.9104299545

> <CNN_VS>
4.7265672684

> <CNNaffinity_variance>
0.3301561177

$$$$
/media/chris/experiments/cd1a-new-docking/inputs/ligands/4x6e_ligand.pdb


 37 36  0  0  0  0  0  0  0  0999 V2000
  -42.1193   55.5824   64.9224 O   0  0  0  0  0  0  0  0  0  0  0  0
  -42.2250   56.6464   64.3644 C   0  0  0  0  0  0  0  0  0  0  0  0
  -43.4379   57.5248   64.3958 C   0  0  0  0  0  0  0  0  0  0  0  0
  -44.4371   57.1285   65.4762 C   0  0  0  0  0  0  0  0  0  0  0  0
  -44.6764   58.1975   66.5286 C   0  0  0  0  0  0  0  0  0  0  0  0
  -46.1474   58.4661   66.7937 C   0  0  0  0  0  0  0  0  0  0  0  0
  -47.0625   57.8036   65.7782 C   0  0  0  0  0  0  0  0  0  0  0  0
  -48.0536   58.7772   65.1804 C   0  0  0  0  0  0  0  0  0  0  0  0
  -49.5082   58.4436   65.4425 C   0  0  0  0  0  0  0  0  0  0  0  0
  -50.4349   59.5790   65.2323 C   0  0  0  0  0  0  0  0  0  0  0  0
  -51.0437   59.8851   64.1052 C   0  0  0  0  0  0  0  0  0  0  0  0
  -50.9719   59.1435   62.8099 C   0  0  0  0  0  0  0  0  0  0  0  0
  -49.9774   59.8240   61.8679 C   0  0  0  0  0  0  0  0  0  0  0  0
  -49.9390   59.2714   60.4506 C   0  0  0  0  0  0  0  0  0  0  0  0
  -49.7200   57.7665   60.3515 C   0  0  0  0  0  0  0  0  0  0  0  0
  -49.1488   57.3211   59.0095 C   0  0  0  0  0  0  0  0  0  0  0  0
  -48.0448   56.2825   59.1282 C   0  0  0  0  0  0  0  0  0  0  0  0
  -47.3310   55.9390   57.8292 C   0  0  0  0  0  0  0  0  0  0  0  0
  -47.3489   57.0657   56.8426 C   0  0  0  0  0  0  0  0  0  0  0  0
  -41.2579   57.2122   63.6362 O   0  0  0  0  0  0  0  0  0  0  0  0
  -41.5757   58.4257   62.9198 C   0  0  0  0  0  0  0  0  0  0  0  0
  -41.0087   58.4113   61.5160 C   0  0  0  0  0  0  0  0  0  0  0  0
  -42.0536   58.3098   60.5391 O   0  0  0  0  0  0  0  0  0  0  0  0
  -42.6237   59.0927   60.5928 H   0  0  0  0  0  0  0  0  0  0  0  0
  -40.1605   59.6259   61.2204 C   0  0  0  0  0  0  0  0  0  0  0  0
  -38.9274   59.6190   61.9800 O   0  0  0  0  0  0  0  0  0  0  0  0
  -38.2661   60.6896   62.9762 P   0  0  0  0  0  0  0  0  0  0  0  0
  -39.3476   61.1781   63.9384 O   0  0  0  0  0  0  0  0  0  0  0  0
  -37.7869   61.8423   62.1824 O   0  0  0  0  0  0  0  0  0  0  0  0
  -38.5257   62.2169   61.6778 H   0  0  0  0  0  0  0  0  0  0  0  0
  -37.0416   60.0234   63.8489 O   0  0  0  0  0  0  0  0  0  0  0  0
  -36.6674   60.3839   65.2065 C   0  0  0  0  0  0  0  0  0  0  0  0
  -35.2555   60.9146   65.2348 C   0  0  0  0  0  0  0  0  0  0  0  0
  -35.1002   62.4221   65.3125 N   0  0  0  0  0  0  0  0  0  0  0  0
  -36.4242   63.0734   65.5534 C   0  0  0  0  0  0  0  0  0  0  0  0
  -34.5469   62.9124   64.0148 C   0  0  0  0  0  0  0  0  0  0  0  0
  -34.1650   62.7985   66.4262 C   0  0  0  0  0  0  0  0  0  0  0  0
 34 33  1  0  0  0
 34 35  1  0  0  0
 34 36  1  0  0  0
 34 37  1  0  0  0
 22 23  1  0  0  0
 22 25  1  0  0  0
 22 21  1  0  0  0
 23 24  1  0  0  0
 27 26  1  0  0  0
 27 28  2  0  0  0
 27 31  1  0  0  0
 27 29  1  0  0  0
 25 26  1  0  0  0
 32 33  1  0  0  0
 32 31  1  0  0  0
 29 30  1  0  0  0
 20 21  1  0  0  0
 20  2  1  0  0  0
  1  2  2  0  0  0
  2  3  1  0  0  0
  3  4  1  0  0  0
  4  5  1  0  0  0
  5  6  1  0  0  0
  6  7  1  0  0  0
  7  8  1  0  0  0
  8  9  1  0  0  0
  9 10  1  0  0  0
 10 11  2  0  0  0
 11 12  1  0  0  0
 12 13  1  0  0  0
 13 14  1  0  0  0
 14 15  1  0  0  0
 15 16  1  0  0  0
 16 17  1  0  0  0
 17 18  1  0  0  0
 18 19  1  0  0  0
M  CHG 1  28  -1
M  END
> <minimizedAffinity>
-7.90744

> <CNNscore>
0.6763899326

> <CNNaffinity>
6.7400741577

> <CNN_VS>
4.5589184761

> <CNNaffinity_variance>
0.2179045230

$$$$
/media/chris/experiments/cd1a-new-docking/inputs/ligands/4x6e_ligand.pdb


 37 36  0  0  0  0  0  0  0  0999 V2000
  -41.4425   60.9391   64.8125 O   0  0  0  0  0  0  0  0  0  0  0  0
  -40.8220   60.3630   65.6715 C   0  0  0  0  0  0  0  0  0  0  0  0
  -41.2232   59.0686   66.3098 C   0  0  0  0  0  0  0  0  0  0  0  0
  -42.1770   58.2469   65.4510 C   0  0  0  0  0  0  0  0  0  0  0  0
  -43.3183   57.6064   66.2221 C   0  0  0  0  0  0  0  0  0  0  0  0
  -44.6879   57.9187   65.6452 C   0  0  0  0  0  0  0  0  0  0  0  0
  -44.6700   59.0910   64.6793 C   0  0  0  0  0  0  0  0  0  0  0  0
  -45.9996   59.8100   64.6275 C   0  0  0  0  0  0  0  0  0  0  0  0
  -47.1931   58.9671   65.0285 C   0  0  0  0  0  0  0  0  0  0  0  0
  -48.1321   59.6494   65.9477 C   0  0  0  0  0  0  0  0  0  0  0  0
  -49.4463   59.5693   65.9143 C   0  0  0  0  0  0  0  0  0  0  0  0
  -50.2776   58.7508   64.9806 C   0  0  0  0  0  0  0  0  0  0  0  0
  -50.6124   59.5601   63.7266 C   0  0  0  0  0  0  0  0  0  0  0  0
  -51.1034   58.7471   62.5377 C   0  0  0  0  0  0  0  0  0  0  0  0
  -50.0177   57.9896   61.7827 C   0  0  0  0  0  0  0  0  0  0  0  0
  -50.4544   57.5158   60.4004 C   0  0  0  0  0  0  0  0  0  0  0  0
  -49.3155   57.4199   59.3979 C   0  0  0  0  0  0  0  0  0  0  0  0
  -48.4105   56.2069   59.5540 C   0  0  0  0  0  0  0  0  0  0  0  0
  -47.5165   55.9947   58.3712 C   0  0  0  0  0  0  0  0  0  0  0  0
  -39.6632   60.7939   66.1784 O   0  0  0  0  0  0  0  0  0  0  0  0
  -38.4602   60.0851   65.8079 C   0  0  0  0  0  0  0  0  0  0  0  0
  -37.4324   61.0113   65.1928 C   0  0  0  0  0  0  0  0  0  0  0  0
  -37.4796   62.3095   65.8000 O   0  0  0  0  0  0  0  0  0  0  0  0
  -37.2497   62.2356   66.7395 H   0  0  0  0  0  0  0  0  0  0  0  0
  -36.0278   60.4632   65.2865 C   0  0  0  0  0  0  0  0  0  0  0  0
  -35.5976   59.8688   64.0379 O   0  0  0  0  0  0  0  0  0  0  0  0
  -35.6582   58.3653   63.4796 P   0  0  0  0  0  0  0  0  0  0  0  0
  -36.2858   57.4812   64.5560 O   0  0  0  0  0  0  0  0  0  0  0  0
  -34.2775   57.8960   63.2313 O   0  0  0  0  0  0  0  0  0  0  0  0
  -33.7609   57.9639   64.0495 H   0  0  0  0  0  0  0  0  0  0  0  0
  -36.5702   58.2666   62.1144 O   0  0  0  0  0  0  0  0  0  0  0  0
  -37.9947   58.5391   62.0188 C   0  0  0  0  0  0  0  0  0  0  0  0
  -38.7467   57.2739   61.6874 C   0  0  0  0  0  0  0  0  0  0  0  0
  -40.2517   57.3998   61.5394 N   0  0  0  0  0  0  0  0  0  0  0  0
  -40.7228   58.7129   62.0767 C   0  0  0  0  0  0  0  0  0  0  0  0
  -40.9010   56.2983   62.3111 C   0  0  0  0  0  0  0  0  0  0  0  0
  -40.6491   57.2965   60.0944 C   0  0  0  0  0  0  0  0  0  0  0  0
 34 33  1  0  0  0
 34 35  1  0  0  0
 34 36  1  0  0  0
 34 37  1  0  0  0
 22 23  1  0  0  0
 22 25  1  0  0  0
 22 21  1  0  0  0
 23 24  1  0  0  0
 27 26  1  0  0  0
 27 28  2  0  0  0
 27 31  1  0  0  0
 27 29  1  0  0  0
 25 26  1  0  0  0
 32 33  1  0  0  0
 32 31  1  0  0  0
 29 30  1  0  0  0
 20 21  1  0  0  0
 20  2  1  0  0  0
  1  2  2  0  0  0
  2  3  1  0  0  0
  3  4  1  0  0  0
  4  5  1  0  0  0
  5  6  1  0  0  0
  6  7  1  0  0  0
  7  8  1  0  0  0
  8  9  1  0  0  0
  9 10  1  0  0  0
 10 11  2  0  0  0
 11 12  1  0  0  0
 12 13  1  0  0  0
 13 14  1  0  0  0
 14 15  1  0  0  0
 15 16  1  0  0  0
 16 17  1  0  0  0
 17 18  1  0  0  0
 18 19  1  0  0  0
M  CHG 1  28  -1
M  END
> <minimizedAffinity>
-7.85543

> <CNNscore>
0.6571891904

> <CNNaffinity>
6.9233160019

> <CNN_VS>
4.5499286652

> <CNNaffinity_variance>
0.6984808445

$$$$
/media/chris/experiments/cd1a-new-docking/inputs/ligands/4x6e_ligand.pdb


 37 36  0  0  0  0  0  0  0  0999 V2000
  -39.8439   60.9082   66.3159 O   0  0  0  0  0  0  0  0  0  0  0  0
  -40.0177   59.8254   65.8138 C   0  0  0  0  0  0  0  0  0  0  0  0
  -41.3459   59.1565   65.6345 C   0  0  0  0  0  0  0  0  0  0  0  0
  -42.1291   59.0207   66.9348 C   0  0  0  0  0  0  0  0  0  0  0  0
  -43.5424   59.5742   66.8740 C   0  0  0  0  0  0  0  0  0  0  0  0
  -44.5922   58.5192   66.5721 C   0  0  0  0  0  0  0  0  0  0  0  0
  -46.0031   58.9774   66.8994 C   0  0  0  0  0  0  0  0  0  0  0  0
  -46.5319   59.9688   65.8872 C   0  0  0  0  0  0  0  0  0  0  0  0
  -47.3206   59.3543   64.7487 C   0  0  0  0  0  0  0  0  0  0  0  0
  -48.1633   60.3204   64.0080 C   0  0  0  0  0  0  0  0  0  0  0  0
  -49.3954   60.1146   63.5907 C   0  0  0  0  0  0  0  0  0  0  0  0
  -50.2279   58.8918   63.8019 C   0  0  0  0  0  0  0  0  0  0  0  0
  -50.8155   58.4185   62.4714 C   0  0  0  0  0  0  0  0  0  0  0  0
  -50.1360   58.9688   61.2259 C   0  0  0  0  0  0  0  0  0  0  0  0
  -50.1356   58.0311   60.0247 C   0  0  0  0  0  0  0  0  0  0  0  0
  -49.4390   56.7007   60.2907 C   0  0  0  0  0  0  0  0  0  0  0  0
  -48.3246   56.3852   59.3057 C   0  0  0  0  0  0  0  0  0  0  0  0
  -48.3353   57.2066   58.0251 C   0  0  0  0  0  0  0  0  0  0  0  0
  -47.3285   56.7311   57.0232 C   0  0  0  0  0  0  0  0  0  0  0  0
  -39.0389   59.0578   65.3257 O   0  0  0  0  0  0  0  0  0  0  0  0
  -39.0892   58.7114   63.9241 C   0  0  0  0  0  0  0  0  0  0  0  0
  -38.1894   59.6031   63.0950 C   0  0  0  0  0  0  0  0  0  0  0  0
  -38.8123   60.8692   62.8395 O   0  0  0  0  0  0  0  0  0  0  0  0
  -38.9557   61.3343   63.6785 H   0  0  0  0  0  0  0  0  0  0  0  0
  -36.8415   59.8269   63.7393 C   0  0  0  0  0  0  0  0  0  0  0  0
  -36.7210   61.1630   64.2851 O   0  0  0  0  0  0  0  0  0  0  0  0
  -36.2320   61.7063   65.7140 P   0  0  0  0  0  0  0  0  0  0  0  0
  -34.8613   61.1008   66.0114 O   0  0  0  0  0  0  0  0  0  0  0  0
  -37.1846   61.2450   66.7475 O   0  0  0  0  0  0  0  0  0  0  0  0
  -37.2446   60.2772   66.7230 H   0  0  0  0  0  0  0  0  0  0  0  0
  -36.1004   63.3457   65.7215 O   0  0  0  0  0  0  0  0  0  0  0  0
  -35.2945   64.1408   64.8098 C   0  0  0  0  0  0  0  0  0  0  0  0
  -33.9961   64.5348   65.4694 C   0  0  0  0  0  0  0  0  0  0  0  0
  -32.7350   64.3495   64.6460 N   0  0  0  0  0  0  0  0  0  0  0  0
  -32.5578   65.4897   63.6954 C   0  0  0  0  0  0  0  0  0  0  0  0
  -32.8561   63.0816   63.8661 C   0  0  0  0  0  0  0  0  0  0  0  0
  -31.5297   64.2712   65.5392 C   0  0  0  0  0  0  0  0  0  0  0  0
 34 33  1  0  0  0
 34 35  1  0  0  0
 34 36  1  0  0  0
 34 37  1  0  0  0
 22 23  1  0  0  0
 22 25  1  0  0  0
 22 21  1  0  0  0
 23 24  1  0  0  0
 27 26  1  0  0  0
 27 28  2  0  0  0
 27 31  1  0  0  0
 27 29  1  0  0  0
 25 26  1  0  0  0
 32 33  1  0  0  0
 32 31  1  0  0  0
 29 30  1  0  0  0
 20 21  1  0  0  0
 20  2  1  0  0  0
  1  2  2  0  0  0
  2  3  1  0  0  0
  3  4  1  0  0  0
  4  5  1  0  0  0
  5  6  1  0  0  0
  6  7  1  0  0  0
  7  8  1  0  0  0
  8  9  1  0  0  0
  9 10  1  0  0  0
 10 11  2  0  0  0
 11 12  1  0  0  0
 12 13  1  0  0  0
 13 14  1  0  0  0
 14 15  1  0  0  0
 15 16  1  0  0  0
 16 17  1  0  0  0
 17 18  1  0  0  0
 18 19  1  0  0  0
M  CHG 1  28  -1
M  END
> <minimizedAffinity>
-7.74307

> <CNNscore>
0.6143386364

> <CNNaffinity>
6.1348729134

> <CNN_VS>
3.7688894272

> <CNNaffinity_variance>
0.4245103002

$$$$
/media/chris/experiments/cd1a-new-docking/inputs/ligands/4x6e_ligand.pdb


 37 36  0  0  0  0  0  0  0  0999 V2000
  -41.9589   55.2701   64.7279 O   0  0  0  0  0  0  0  0  0  0  0  0
  -42.0879   56.4679   64.6704 C   0  0  0  0  0  0  0  0  0  0  0  0
  -43.3917   57.2029   64.7303 C   0  0  0  0  0  0  0  0  0  0  0  0
  -43.7718   57.6354   66.1414 C   0  0  0  0  0  0  0  0  0  0  0  0
  -44.3457   59.0390   66.2316 C   0  0  0  0  0  0  0  0  0  0  0  0
  -45.5268   59.1492   67.1798 C   0  0  0  0  0  0  0  0  0  0  0  0
  -46.8665   59.0536   66.4702 C   0  0  0  0  0  0  0  0  0  0  0  0
  -46.8281   59.6707   65.0899 C   0  0  0  0  0  0  0  0  0  0  0  0
  -48.1479   60.2421   64.6130 C   0  0  0  0  0  0  0  0  0  0  0  0
  -49.3289   59.7167   65.3351 C   0  0  0  0  0  0  0  0  0  0  0  0
  -50.5195   59.4952   64.8173 C   0  0  0  0  0  0  0  0  0  0  0  0
  -50.9341   59.6817   63.3938 C   0  0  0  0  0  0  0  0  0  0  0  0
  -50.7162   58.3877   62.6080 C   0  0  0  0  0  0  0  0  0  0  0  0
  -50.2496   58.5682   61.1709 C   0  0  0  0  0  0  0  0  0  0  0  0
  -50.1543   57.2826   60.3583 C   0  0  0  0  0  0  0  0  0  0  0  0
  -49.0678   57.3172   59.2885 C   0  0  0  0  0  0  0  0  0  0  0  0
  -48.2140   56.0600   59.2420 C   0  0  0  0  0  0  0  0  0  0  0  0
  -47.1996   56.0030   58.1095 C   0  0  0  0  0  0  0  0  0  0  0  0
  -47.5390   56.9268   56.9804 C   0  0  0  0  0  0  0  0  0  0  0  0
  -41.0720   57.3283   64.5557 O   0  0  0  0  0  0  0  0  0  0  0  0
  -40.6131   57.6561   63.2256 C   0  0  0  0  0  0  0  0  0  0  0  0
  -40.3481   59.1391   63.0751 C   0  0  0  0  0  0  0  0  0  0  0  0
  -40.6393   59.8408   64.2914 O   0  0  0  0  0  0  0  0  0  0  0  0
  -40.0471   59.5298   64.9939 H   0  0  0  0  0  0  0  0  0  0  0  0
  -38.9283   59.4347   62.6519 C   0  0  0  0  0  0  0  0  0  0  0  0
  -37.9867   58.5045   63.2399 O   0  0  0  0  0  0  0  0  0  0  0  0
  -37.2701   58.4551   64.6752 P   0  0  0  0  0  0  0  0  0  0  0  0
  -36.6744   57.0610   64.8637 O   0  0  0  0  0  0  0  0  0  0  0  0
  -38.2913   58.6760   65.7225 O   0  0  0  0  0  0  0  0  0  0  0  0
  -38.9909   58.0095   65.6376 H   0  0  0  0  0  0  0  0  0  0  0  0
  -36.0627   59.5667   64.7836 O   0  0  0  0  0  0  0  0  0  0  0  0
  -36.1491   60.9615   64.3837 C   0  0  0  0  0  0  0  0  0  0  0  0
  -35.2612   61.8110   65.2589 C   0  0  0  0  0  0  0  0  0  0  0  0
  -35.5364   63.3033   65.2567 N   0  0  0  0  0  0  0  0  0  0  0  0
  -36.4941   63.6577   64.1648 C   0  0  0  0  0  0  0  0  0  0  0  0
  -34.2495   64.0255   65.0270 C   0  0  0  0  0  0  0  0  0  0  0  0
  -36.1204   63.7331   66.5723 C   0  0  0  0  0  0  0  0  0  0  0  0
 34 33  1  0  0  0
 34 35  1  0  0  0
 34 36  1  0  0  0
 34 37  1  0  0  0
 22 23  1  0  0  0
 22 25  1  0  0  0
 22 21  1  0  0  0
 23 24  1  0  0  0
 27 26  1  0  0  0
 27 28  2  0  0  0
 27 31  1  0  0  0
 27 29  1  0  0  0
 25 26  1  0  0  0
 32 33  1  0  0  0
 32 31  1  0  0  0
 29 30  1  0  0  0
 20 21  1  0  0  0
 20  2  1  0  0  0
  1  2  2  0  0  0
  2  3  1  0  0  0
  3  4  1  0  0  0
  4  5  1  0  0  0
  5  6  1  0  0  0
  6  7  1  0  0  0
  7  8  1  0  0  0
  8  9  1  0  0  0
  9 10  1  0  0  0
 10 11  2  0  0  0
 11 12  1  0  0  0
 12 13  1  0  0  0
 13 14  1  0  0  0
 14 15  1  0  0  0
 15 16  1  0  0  0
 16 17  1  0  0  0
 17 18  1  0  0  0
 18 19  1  0  0  0
M  CHG 1  28  -1
M  END
> <minimizedAffinity>
-7.77441

> <CNNscore>
0.5746413469

> <CNNaffinity>
6.6134729385

> <CNN_VS>
3.8003749847

> <CNNaffinity_variance>
0.5589433312

$$$$
