/media/chris/experiments/cd1a-new-docking/inputs/ligands/4x6e_ligand.pdb


 37 36  0  0  0  0  0  0  0  0999 V2000
  -42.9833   57.0034   66.2992 O   0  0  0  0  0  0  0  0  0  0  0  0
  -42.5679   58.1353   66.2687 C   0  0  0  0  0  0  0  0  0  0  0  0
  -43.3936   59.3673   66.4789 C   0  0  0  0  0  0  0  0  0  0  0  0
  -44.8706   59.1597   66.1660 C   0  0  0  0  0  0  0  0  0  0  0  0
  -45.3574   59.8971   64.9303 C   0  0  0  0  0  0  0  0  0  0  0  0
  -46.7577   59.4969   64.5002 C   0  0  0  0  0  0  0  0  0  0  0  0
  -47.7582   59.5228   65.6429 C   0  0  0  0  0  0  0  0  0  0  0  0
  -48.4954   58.2102   65.7877 C   0  0  0  0  0  0  0  0  0  0  0  0
  -49.9985   58.3044   65.6206 C   0  0  0  0  0  0  0  0  0  0  0  0
  -50.4922   59.6767   65.3649 C   0  0  0  0  0  0  0  0  0  0  0  0
  -50.9758   60.1274   64.2257 C   0  0  0  0  0  0  0  0  0  0  0  0
  -51.1724   59.3573   62.9604 C   0  0  0  0  0  0  0  0  0  0  0  0
  -50.0410   59.6622   61.9773 C   0  0  0  0  0  0  0  0  0  0  0  0
  -50.0120   58.7951   60.7272 C   0  0  0  0  0  0  0  0  0  0  0  0
  -49.5689   57.3546   60.9523 C   0  0  0  0  0  0  0  0  0  0  0  0
  -49.2296   56.6131   59.6634 C   0  0  0  0  0  0  0  0  0  0  0  0
  -48.5429   57.4806   58.6204 C   0  0  0  0  0  0  0  0  0  0  0  0
  -48.2243   56.7877   57.3041 C   0  0  0  0  0  0  0  0  0  0  0  0
  -46.9256   56.0423   57.3409 C   0  0  0  0  0  0  0  0  0  0  0  0
  -41.2902   58.4612   66.0523 O   0  0  0  0  0  0  0  0  0  0  0  0
  -41.0133   59.7556   65.4737 C   0  0  0  0  0  0  0  0  0  0  0  0
  -39.5273   59.9798   65.2901 C   0  0  0  0  0  0  0  0  0  0  0  0
  -39.0410   60.9792   66.1962 O   0  0  0  0  0  0  0  0  0  0  0  0
  -39.1578   60.6723   67.1090 H   0  0  0  0  0  0  0  0  0  0  0  0
  -38.7238   58.7120   65.4616 C   0  0  0  0  0  0  0  0  0  0  0  0
  -37.3698   58.8622   64.9702 O   0  0  0  0  0  0  0  0  0  0  0  0
  -36.7679   59.0084   63.4895 P   0  0  0  0  0  0  0  0  0  0  0  0
  -35.3124   58.5451   63.5179 O   0  0  0  0  0  0  0  0  0  0  0  0
  -36.7999   60.4361   63.1038 O   0  0  0  0  0  0  0  0  0  0  0  0
  -36.3054   60.9581   63.7550 H   0  0  0  0  0  0  0  0  0  0  0  0
  -37.5968   58.0860   62.4091 O   0  0  0  0  0  0  0  0  0  0  0  0
  -37.9650   58.4781   61.0586 C   0  0  0  0  0  0  0  0  0  0  0  0
  -39.2281   57.7697   60.6359 C   0  0  0  0  0  0  0  0  0  0  0  0
  -40.5125   58.2160   61.3097 N   0  0  0  0  0  0  0  0  0  0  0  0
  -40.7347   57.4494   62.5739 C   0  0  0  0  0  0  0  0  0  0  0  0
  -41.6530   57.9603   60.3800 C   0  0  0  0  0  0  0  0  0  0  0  0
  -40.4547   59.6814   61.6350 C   0  0  0  0  0  0  0  0  0  0  0  0
 34 33  1  0  0  0
 34 35  1  0  0  0
 34 36  1  0  0  0
 34 37  1  0  0  0
 22 23  1  0  0  0
 22 25  1  0  0  0
 22 21  1  0  0  0
 23 24  1  0  0  0
 27 26  1  0  0  0
 27 28  2  0  0  0
 27 31  1  0  0  0
 27 29  1  0  0  0
 25 26  1  0  0  0
 32 33  1  0  0  0
 32 31  1  0  0  0
 29 30  1  0  0  0
 20 21  1  0  0  0
 20  2  1  0  0  0
  1  2  2  0  0  0
  2  3  1  0  0  0
  3  4  1  0  0  0
  4  5  1  0  0  0
  5  6  1  0  0  0
  6  7  1  0  0  0
  7  8  1  0  0  0
  8  9  1  0  0  0
  9 10  1  0  0  0
 10 11  2  0  0  0
 11 12  1  0  0  0
 12 13  1  0  0  0
 13 14  1  0  0  0
 14 15  1  0  0  0
 15 16  1  0  0  0
 16 17  1  0  0  0
 17 18  1  0  0  0
 18 19  1  0  0  0
M  CHG 1  28  -1
M  END
> <minimizedAffinity>
-8.00267

> <CNNscore>
0.6988191605

> <CNNaffinity>
6.9457297325

> <CNN_VS>
4.8538088799

> <CNNaffinity_variance>
0.3581543565

$$$$
/media/chris/experiments/cd1a-new-docking/inputs/ligands/4x6e_ligand.pdb


 37 36  0  0  0  0  0  0  0  0999 V2000
  -40.5204   56.6484   63.0044 O   0  0  0  0  0  0  0  0  0  0  0  0
  -41.0737   57.0107   64.0130 C   0  0  0  0  0  0  0  0  0  0  0  0
  -42.2856   56.3685   64.6152 C   0  0  0  0  0  0  0  0  0  0  0  0
  -43.4497   57.3355   64.7948 C   0  0  0  0  0  0  0  0  0  0  0  0
  -44.1198   57.2611   66.1560 C   0  0  0  0  0  0  0  0  0  0  0  0
  -45.6217   57.4790   66.1031 C   0  0  0  0  0  0  0  0  0  0  0  0
  -46.0459   58.8202   66.6766 C   0  0  0  0  0  0  0  0  0  0  0  0
  -47.0642   59.5193   65.8038 C   0  0  0  0  0  0  0  0  0  0  0  0
  -47.9731   58.5928   65.0218 C   0  0  0  0  0  0  0  0  0  0  0  0
  -49.3092   58.4028   65.6309 C   0  0  0  0  0  0  0  0  0  0  0  0
  -50.4348   58.9471   65.2169 C   0  0  0  0  0  0  0  0  0  0  0  0
  -50.6258   59.8354   64.0307 C   0  0  0  0  0  0  0  0  0  0  0  0
  -51.1693   59.0283   62.8506 C   0  0  0  0  0  0  0  0  0  0  0  0
  -50.1460   58.6588   61.7868 C   0  0  0  0  0  0  0  0  0  0  0  0
  -50.6184   57.6280   60.7689 C   0  0  0  0  0  0  0  0  0  0  0  0
  -49.4780   56.9012   60.0636 C   0  0  0  0  0  0  0  0  0  0  0  0
  -49.0269   57.5730   58.7764 C   0  0  0  0  0  0  0  0  0  0  0  0
  -48.1296   56.7310   57.8818 C   0  0  0  0  0  0  0  0  0  0  0  0
  -47.1926   55.8574   58.6581 C   0  0  0  0  0  0  0  0  0  0  0  0
  -40.6743   58.0449   64.7590 O   0  0  0  0  0  0  0  0  0  0  0  0
  -40.2598   59.2485   64.0759 C   0  0  0  0  0  0  0  0  0  0  0  0
  -39.3630   60.1042   64.9452 C   0  0  0  0  0  0  0  0  0  0  0  0
  -40.1171   60.7645   65.9707 O   0  0  0  0  0  0  0  0  0  0  0  0
  -40.5122   60.1021   66.5589 H   0  0  0  0  0  0  0  0  0  0  0  0
  -38.2410   59.3136   65.5764 C   0  0  0  0  0  0  0  0  0  0  0  0
  -37.4097   58.6697   64.5805 O   0  0  0  0  0  0  0  0  0  0  0  0
  -35.8279   58.6997   64.3106 P   0  0  0  0  0  0  0  0  0  0  0  0
  -35.6022   58.9788   62.8255 O   0  0  0  0  0  0  0  0  0  0  0  0
  -35.2674   57.3684   64.6297 O   0  0  0  0  0  0  0  0  0  0  0  0
  -35.7182   56.6924   64.0998 H   0  0  0  0  0  0  0  0  0  0  0  0
  -35.0895   59.8776   65.1895 O   0  0  0  0  0  0  0  0  0  0  0  0
  -35.1810   61.3077   64.9455 C   0  0  0  0  0  0  0  0  0  0  0  0
  -34.4081   62.0664   65.9957 C   0  0  0  0  0  0  0  0  0  0  0  0
  -34.2058   63.5498   65.7477 N   0  0  0  0  0  0  0  0  0  0  0  0
  -34.6899   64.3470   66.9162 C   0  0  0  0  0  0  0  0  0  0  0  0
  -34.9856   63.9419   64.5359 C   0  0  0  0  0  0  0  0  0  0  0  0
  -32.7517   63.8526   65.5231 C   0  0  0  0  0  0  0  0  0  0  0  0
 34 33  1  0  0  0
 34 35  1  0  0  0
 34 36  1  0  0  0
 34 37  1  0  0  0
 22 23  1  0  0  0
 22 25  1  0  0  0
 22 21  1  0  0  0
 23 24  1  0  0  0
 27 26  1  0  0  0
 27 28  2  0  0  0
 27 31  1  0  0  0
 27 29  1  0  0  0
 25 26  1  0  0  0
 32 33  1  0  0  0
 32 31  1  0  0  0
 29 30  1  0  0  0
 20 21  1  0  0  0
 20  2  1  0  0  0
  1  2  2  0  0  0
  2  3  1  0  0  0
  3  4  1  0  0  0
  4  5  1  0  0  0
  5  6  1  0  0  0
  6  7  1  0  0  0
  7  8  1  0  0  0
  8  9  1  0  0  0
  9 10  1  0  0  0
 10 11  2  0  0  0
 11 12  1  0  0  0
 12 13  1  0  0  0
 13 14  1  0  0  0
 14 15  1  0  0  0
 15 16  1  0  0  0
 16 17  1  0  0  0
 17 18  1  0  0  0
 18 19  1  0  0  0
M  CHG 1  28  -1
M  END
> <minimizedAffinity>
-7.80451

> <CNNscore>
0.6391298175

> <CNNaffinity>
6.5653700829

> <CNN_VS>
4.1961236000

> <CNNaffinity_variance>
0.4140879214

$$$$
/media/chris/experiments/cd1a-new-docking/inputs/ligands/4x6e_ligand.pdb


 37 36  0  0  0  0  0  0  0  0999 V2000
  -41.4833   56.5085   63.3673 O   0  0  0  0  0  0  0  0  0  0  0  0
  -42.0173   57.5383   63.6975 C   0  0  0  0  0  0  0  0  0  0  0  0
  -42.9196   58.3630   62.8319 C   0  0  0  0  0  0  0  0  0  0  0  0
  -44.3389   58.4708   63.3767 C   0  0  0  0  0  0  0  0  0  0  0  0
  -44.7283   59.8658   63.8347 C   0  0  0  0  0  0  0  0  0  0  0  0
  -46.0803   59.9202   64.5240 C   0  0  0  0  0  0  0  0  0  0  0  0
  -45.9756   59.8592   66.0382 C   0  0  0  0  0  0  0  0  0  0  0  0
  -47.2513   59.3611   66.6802 C   0  0  0  0  0  0  0  0  0  0  0  0
  -48.5208   59.7316   65.9407 C   0  0  0  0  0  0  0  0  0  0  0  0
  -49.4500   58.5979   65.7319 C   0  0  0  0  0  0  0  0  0  0  0  0
  -50.4214   58.5445   64.8440 C   0  0  0  0  0  0  0  0  0  0  0  0
  -50.7772   59.5837   63.8312 C   0  0  0  0  0  0  0  0  0  0  0  0
  -51.0660   58.9259   62.4809 C   0  0  0  0  0  0  0  0  0  0  0  0
  -49.8412   58.4605   61.7070 C   0  0  0  0  0  0  0  0  0  0  0  0
  -49.9937   58.4741   60.1908 C   0  0  0  0  0  0  0  0  0  0  0  0
  -49.4386   57.2264   59.5116 C   0  0  0  0  0  0  0  0  0  0  0  0
  -48.6385   57.5192   58.2523 C   0  0  0  0  0  0  0  0  0  0  0  0
  -47.6366   56.4464   57.8528 C   0  0  0  0  0  0  0  0  0  0  0  0
  -47.0618   55.7223   59.0312 C   0  0  0  0  0  0  0  0  0  0  0  0
  -41.8909   58.0966   64.9051 O   0  0  0  0  0  0  0  0  0  0  0  0
  -40.5729   58.5211   65.3168 C   0  0  0  0  0  0  0  0  0  0  0  0
  -40.3012   59.9587   64.9269 C   0  0  0  0  0  0  0  0  0  0  0  0
  -41.3844   60.8125   65.3194 O   0  0  0  0  0  0  0  0  0  0  0  0
  -41.4680   60.8052   66.2857 H   0  0  0  0  0  0  0  0  0  0  0  0
  -39.0104   60.4839   65.5101 C   0  0  0  0  0  0  0  0  0  0  0  0
  -37.9120   59.5631   65.3025 O   0  0  0  0  0  0  0  0  0  0  0  0
  -36.6754   59.5698   64.2794 P   0  0  0  0  0  0  0  0  0  0  0  0
  -35.3961   59.8136   65.0782 O   0  0  0  0  0  0  0  0  0  0  0  0
  -36.8550   60.6868   63.3263 O   0  0  0  0  0  0  0  0  0  0  0  0
  -36.9317   61.5206   63.8161 H   0  0  0  0  0  0  0  0  0  0  0  0
  -36.5409   58.1342   63.4883 O   0  0  0  0  0  0  0  0  0  0  0  0
  -36.9149   57.8839   62.1061 C   0  0  0  0  0  0  0  0  0  0  0  0
  -38.4056   57.6793   61.9980 C   0  0  0  0  0  0  0  0  0  0  0  0
  -39.0997   58.3601   60.8328 N   0  0  0  0  0  0  0  0  0  0  0  0
  -38.1274   58.6320   59.7302 C   0  0  0  0  0  0  0  0  0  0  0  0
  -39.6698   59.6561   61.3080 C   0  0  0  0  0  0  0  0  0  0  0  0
  -40.2065   57.4948   60.3009 C   0  0  0  0  0  0  0  0  0  0  0  0
 34 33  1  0  0  0
 34 35  1  0  0  0
 34 36  1  0  0  0
 34 37  1  0  0  0
 22 23  1  0  0  0
 22 25  1  0  0  0
 22 21  1  0  0  0
 23 24  1  0  0  0
 27 26  1  0  0  0
 27 28  2  0  0  0
 27 31  1  0  0  0
 27 29  1  0  0  0
 25 26  1  0  0  0
 32 33  1  0  0  0
 32 31  1  0  0  0
 29 30  1  0  0  0
 20 21  1  0  0  0
 20  2  1  0  0  0
  1  2  2  0  0  0
  2  3  1  0  0  0
  3  4  1  0  0  0
  4  5  1  0  0  0
  5  6  1  0  0  0
  6  7  1  0  0  0
  7  8  1  0  0  0
  8  9  1  0  0  0
  9 10  1  0  0  0
 10 11  2  0  0  0
 11 12  1  0  0  0
 12 13  1  0  0  0
 13 14  1  0  0  0
 14 15  1  0  0  0
 15 16  1  0  0  0
 16 17  1  0  0  0
 17 18  1  0  0  0
 18 19  1  0  0  0
M  CHG 1  28  -1
M  END
> <minimizedAffinity>
-7.63957

> <CNNscore>
0.6366325021

> <CNNaffinity>
6.9580202103

> <CNN_VS>
4.4297018051

> <CNNaffinity_variance>
0.1886428893

$$$$
/media/chris/experiments/cd1a-new-docking/inputs/ligands/4x6e_ligand.pdb


 37 36  0  0  0  0  0  0  0  0999 V2000
  -42.5052   55.6329   64.8093 O   0  0  0  0  0  0  0  0  0  0  0  0
  -42.3643   56.7991   65.0829 C   0  0  0  0  0  0  0  0  0  0  0  0
  -42.9264   57.4794   66.2933 C   0  0  0  0  0  0  0  0  0  0  0  0
  -44.4359   57.6768   66.2231 C   0  0  0  0  0  0  0  0  0  0  0  0
  -44.9238   58.3133   64.9331 C   0  0  0  0  0  0  0  0  0  0  0  0
  -45.4995   59.7053   65.1259 C   0  0  0  0  0  0  0  0  0  0  0  0
  -46.4444   59.7961   66.3118 C   0  0  0  0  0  0  0  0  0  0  0  0
  -47.8838   59.9762   65.8838 C   0  0  0  0  0  0  0  0  0  0  0  0
  -48.7434   58.7347   66.0089 C   0  0  0  0  0  0  0  0  0  0  0  0
  -50.1216   58.9009   65.4939 C   0  0  0  0  0  0  0  0  0  0  0  0
  -50.5112   58.7215   64.2485 C   0  0  0  0  0  0  0  0  0  0  0  0
  -49.6724   58.2758   63.0952 C   0  0  0  0  0  0  0  0  0  0  0  0
  -50.5535   58.0181   61.8718 C   0  0  0  0  0  0  0  0  0  0  0  0
  -50.1429   58.7551   60.6054 C   0  0  0  0  0  0  0  0  0  0  0  0
  -50.0577   57.8887   59.3547 C   0  0  0  0  0  0  0  0  0  0  0  0
  -48.6276   57.5897   58.9170 C   0  0  0  0  0  0  0  0  0  0  0  0
  -48.5200   57.0613   57.4954 C   0  0  0  0  0  0  0  0  0  0  0  0
  -47.6289   55.8409   57.3196 C   0  0  0  0  0  0  0  0  0  0  0  0
  -46.6537   55.6685   58.4434 C   0  0  0  0  0  0  0  0  0  0  0  0
  -41.6659   57.6654   64.3429 O   0  0  0  0  0  0  0  0  0  0  0  0
  -41.1966   57.2226   63.0503 C   0  0  0  0  0  0  0  0  0  0  0  0
  -39.9324   57.9457   62.6366 C   0  0  0  0  0  0  0  0  0  0  0  0
  -39.6410   57.7223   61.2504 O   0  0  0  0  0  0  0  0  0  0  0  0
  -40.3544   58.0914   60.7065 H   0  0  0  0  0  0  0  0  0  0  0  0
  -40.0002   59.4313   62.9030 C   0  0  0  0  0  0  0  0  0  0  0  0
  -38.9827   59.8568   63.8416 O   0  0  0  0  0  0  0  0  0  0  0  0
  -38.7865   59.5975   65.4133 P   0  0  0  0  0  0  0  0  0  0  0  0
  -38.1116   58.2387   65.5924 O   0  0  0  0  0  0  0  0  0  0  0  0
  -40.1183   59.5497   66.0555 O   0  0  0  0  0  0  0  0  0  0  0  0
  -40.6562   58.8616   65.6335 H   0  0  0  0  0  0  0  0  0  0  0  0
  -37.8404   60.7540   66.1007 O   0  0  0  0  0  0  0  0  0  0  0  0
  -36.4315   60.9794   65.8227 C   0  0  0  0  0  0  0  0  0  0  0  0
  -36.2730   62.0255   64.7473 C   0  0  0  0  0  0  0  0  0  0  0  0
  -35.4420   63.2438   65.1052 N   0  0  0  0  0  0  0  0  0  0  0  0
  -35.5093   64.2629   64.0134 C   0  0  0  0  0  0  0  0  0  0  0  0
  -34.0221   62.8173   65.2845 C   0  0  0  0  0  0  0  0  0  0  0  0
  -35.9397   63.8647   66.3794 C   0  0  0  0  0  0  0  0  0  0  0  0
 34 33  1  0  0  0
 34 35  1  0  0  0
 34 36  1  0  0  0
 34 37  1  0  0  0
 22 23  1  0  0  0
 22 25  1  0  0  0
 22 21  1  0  0  0
 23 24  1  0  0  0
 27 26  1  0  0  0
 27 28  2  0  0  0
 27 31  1  0  0  0
 27 29  1  0  0  0
 25 26  1  0  0  0
 32 33  1  0  0  0
 32 31  1  0  0  0
 29 30  1  0  0  0
 20 21  1  0  0  0
 20  2  1  0  0  0
  1  2  2  0  0  0
  2  3  1  0  0  0
  3  4  1  0  0  0
  4  5  1  0  0  0
  5  6  1  0  0  0
  6  7  1  0  0  0
  7  8  1  0  0  0
  8  9  1  0  0  0
  9 10  1  0  0  0
 10 11  2  0  0  0
 11 12  1  0  0  0
 12 13  1  0  0  0
 13 14  1  0  0  0
 14 15  1  0  0  0
 15 16  1  0  0  0
 16 17  1  0  0  0
 17 18  1  0  0  0
 18 19  1  0  0  0
M  CHG 1  28  -1
M  END
> <minimizedAffinity>
-7.48500

> <CNNscore>
0.6260944605

> <CNNaffinity>
6.6077399254

> <CNN_VS>
4.1370692253

> <CNNaffinity_variance>
0.4339280725

$$$$
/media/chris/experiments/cd1a-new-docking/inputs/ligands/4x6e_ligand.pdb


 37 36  0  0  0  0  0  0  0  0999 V2000
  -40.0208   58.6894   65.5351 O   0  0  0  0  0  0  0  0  0  0  0  0
  -40.2926   59.7759   65.9826 C   0  0  0  0  0  0  0  0  0  0  0  0
  -41.6370   60.1894   66.4977 C   0  0  0  0  0  0  0  0  0  0  0  0
  -42.6359   59.0399   66.5565 C   0  0  0  0  0  0  0  0  0  0  0  0
  -44.0842   59.4768   66.6943 C   0  0  0  0  0  0  0  0  0  0  0  0
  -45.0094   58.8320   65.6772 C   0  0  0  0  0  0  0  0  0  0  0  0
  -45.3331   59.7463   64.5081 C   0  0  0  0  0  0  0  0  0  0  0  0
  -46.7570   60.2539   64.5562 C   0  0  0  0  0  0  0  0  0  0  0  0
  -47.8057   59.1830   64.7781 C   0  0  0  0  0  0  0  0  0  0  0  0
  -48.9940   59.6487   65.5286 C   0  0  0  0  0  0  0  0  0  0  0  0
  -50.2506   59.4912   65.1669 C   0  0  0  0  0  0  0  0  0  0  0  0
  -50.7592   58.7808   63.9548 C   0  0  0  0  0  0  0  0  0  0  0  0
  -50.9200   59.7660   62.7958 C   0  0  0  0  0  0  0  0  0  0  0  0
  -50.1033   59.4483   61.5518 C   0  0  0  0  0  0  0  0  0  0  0  0
  -49.4557   58.0690   61.5412 C   0  0  0  0  0  0  0  0  0  0  0  0
  -49.9355   57.1795   60.3989 C   0  0  0  0  0  0  0  0  0  0  0  0
  -49.0338   55.9846   60.1329 C   0  0  0  0  0  0  0  0  0  0  0  0
  -47.9711   56.1952   59.0648 C   0  0  0  0  0  0  0  0  0  0  0  0
  -48.3535   57.2434   58.0655 C   0  0  0  0  0  0  0  0  0  0  0  0
  -39.4194   60.7808   66.0980 O   0  0  0  0  0  0  0  0  0  0  0  0
  -38.0122   60.4633   66.0207 C   0  0  0  0  0  0  0  0  0  0  0  0
  -37.2525   61.4853   65.2017 C   0  0  0  0  0  0  0  0  0  0  0  0
  -37.2472   62.7643   65.8501 O   0  0  0  0  0  0  0  0  0  0  0  0
  -36.7803   62.6953   66.6975 H   0  0  0  0  0  0  0  0  0  0  0  0
  -35.8311   61.0601   64.9170 C   0  0  0  0  0  0  0  0  0  0  0  0
  -35.7568   60.1463   63.7959 O   0  0  0  0  0  0  0  0  0  0  0  0
  -35.5925   58.5521   63.7108 P   0  0  0  0  0  0  0  0  0  0  0  0
  -34.7464   58.0952   64.8980 O   0  0  0  0  0  0  0  0  0  0  0  0
  -34.8726   58.2159   62.4629 O   0  0  0  0  0  0  0  0  0  0  0  0
  -34.0182   58.6750   62.4489 H   0  0  0  0  0  0  0  0  0  0  0  0
  -37.0499   57.7924   63.7749 O   0  0  0  0  0  0  0  0  0  0  0  0
  -37.8587   57.4014   62.6321 C   0  0  0  0  0  0  0  0  0  0  0  0
  -38.8647   58.4791   62.3121 C   0  0  0  0  0  0  0  0  0  0  0  0
  -39.2391   58.6434   60.8507 N   0  0  0  0  0  0  0  0  0  0  0  0
  -39.9463   59.9426   60.6340 C   0  0  0  0  0  0  0  0  0  0  0  0
  -40.1490   57.5246   60.4623 C   0  0  0  0  0  0  0  0  0  0  0  0
  -38.0114   58.6094   59.9857 C   0  0  0  0  0  0  0  0  0  0  0  0
 34 33  1  0  0  0
 34 35  1  0  0  0
 34 36  1  0  0  0
 34 37  1  0  0  0
 22 23  1  0  0  0
 22 25  1  0  0  0
 22 21  1  0  0  0
 23 24  1  0  0  0
 27 26  1  0  0  0
 27 28  2  0  0  0
 27 31  1  0  0  0
 27 29  1  0  0  0
 25 26  1  0  0  0
 32 33  1  0  0  0
 32 31  1  0  0  0
 29 30  1  0  0  0
 20 21  1  0  0  0
 20  2  1  0  0  0
  1  2  2  0  0  0
  2  3  1  0  0  0
  3  4  1  0  0  0
  4  5  1  0  0  0
  5  6  1  0  0  0
  6  7  1  0  0  0
  7  8  1  0  0  0
  8  9  1  0  0  0
  9 10  1  0  0  0
 10 11  2  0  0  0
 11 12  1  0  0  0
 12 13  1  0  0  0
 13 14  1  0  0  0
 14 15  1  0  0  0
 15 16  1  0  0  0
 16 17  1  0  0  0
 17 18  1  0  0  0
 18 19  1  0  0  0
M  CHG 1  28  -1
M  END
> <minimizedAffinity>
-7.89295

> <CNNscore>
0.5720990896

> <CNNaffinity>
6.6109685898

> <CNN_VS>
3.7821290493

> <CNNaffinity_variance>
0.1663586348

$$$$
/media/chris/experiments/cd1a-new-docking/inputs/ligands/4x6e_ligand.pdb


 37 36  0  0  0  0  0  0  0  0999 V2000
  -41.2494   58.5616   65.8240 O   0  0  0  0  0  0  0  0  0  0  0  0
  -41.8103   59.6147   66.0006 C   0  0  0  0  0  0  0  0  0  0  0  0
  -43.0076   59.8228   66.8763 C   0  0  0  0  0  0  0  0  0  0  0  0
  -44.2337   59.0471   66.4096 C   0  0  0  0  0  0  0  0  0  0  0  0
  -45.4154   59.1142   67.3616 C   0  0  0  0  0  0  0  0  0  0  0  0
  -46.5630   58.2017   66.9659 C   0  0  0  0  0  0  0  0  0  0  0  0
  -47.4550   58.8033   65.8936 C   0  0  0  0  0  0  0  0  0  0  0  0
  -48.4937   57.8224   65.3971 C   0  0  0  0  0  0  0  0  0  0  0  0
  -49.9086   58.1088   65.8573 C   0  0  0  0  0  0  0  0  0  0  0  0
  -50.4164   59.4398   65.4540 C   0  0  0  0  0  0  0  0  0  0  0  0
  -50.8164   59.7844   64.2473 C   0  0  0  0  0  0  0  0  0  0  0  0
  -50.8870   58.9125   63.0360 C   0  0  0  0  0  0  0  0  0  0  0  0
  -50.5218   59.7161   61.7868 C   0  0  0  0  0  0  0  0  0  0  0  0
  -49.8167   58.9317   60.6899 C   0  0  0  0  0  0  0  0  0  0  0  0
  -49.5356   57.4711   61.0213 C   0  0  0  0  0  0  0  0  0  0  0  0
  -48.9745   56.6769   59.8463 C   0  0  0  0  0  0  0  0  0  0  0  0
  -48.8861   57.4743   58.5547 C   0  0  0  0  0  0  0  0  0  0  0  0
  -47.9525   56.9023   57.4985 C   0  0  0  0  0  0  0  0  0  0  0  0
  -47.0413   55.8449   58.0417 C   0  0  0  0  0  0  0  0  0  0  0  0
  -41.4336   60.7693   65.4431 O   0  0  0  0  0  0  0  0  0  0  0  0
  -41.4634   60.8632   64.0018 C   0  0  0  0  0  0  0  0  0  0  0  0
  -42.6065   60.0640   63.4129 C   0  0  0  0  0  0  0  0  0  0  0  0
  -43.7561   60.8930   63.1944 O   0  0  0  0  0  0  0  0  0  0  0  0
  -43.5412   61.5787   62.5429 H   0  0  0  0  0  0  0  0  0  0  0  0
  -42.2293   59.3772   62.1213 C   0  0  0  0  0  0  0  0  0  0  0  0
  -40.9267   58.7501   62.2056 O   0  0  0  0  0  0  0  0  0  0  0  0
  -40.4000   57.2932   61.7862 P   0  0  0  0  0  0  0  0  0  0  0  0
  -41.3492   56.7278   60.7309 O   0  0  0  0  0  0  0  0  0  0  0  0
  -40.4409   56.4141   62.9752 O   0  0  0  0  0  0  0  0  0  0  0  0
  -41.3437   56.3909   63.3293 H   0  0  0  0  0  0  0  0  0  0  0  0
  -38.8834   57.3605   61.1533 O   0  0  0  0  0  0  0  0  0  0  0  0
  -37.8538   58.3239   61.5069 C   0  0  0  0  0  0  0  0  0  0  0  0
  -37.0492   57.8206   62.6795 C   0  0  0  0  0  0  0  0  0  0  0  0
  -37.1301   58.6367   63.9563 N   0  0  0  0  0  0  0  0  0  0  0  0
  -35.7605   58.9186   64.4855 C   0  0  0  0  0  0  0  0  0  0  0  0
  -37.8928   57.8549   64.9750 C   0  0  0  0  0  0  0  0  0  0  0  0
  -37.8304   59.9414   63.7037 C   0  0  0  0  0  0  0  0  0  0  0  0
 34 33  1  0  0  0
 34 35  1  0  0  0
 34 36  1  0  0  0
 34 37  1  0  0  0
 22 23  1  0  0  0
 22 25  1  0  0  0
 22 21  1  0  0  0
 23 24  1  0  0  0
 27 26  1  0  0  0
 27 28  2  0  0  0
 27 31  1  0  0  0
 27 29  1  0  0  0
 25 26  1  0  0  0
 32 33  1  0  0  0
 32 31  1  0  0  0
 29 30  1  0  0  0
 20 21  1  0  0  0
 20  2  1  0  0  0
  1  2  2  0  0  0
  2  3  1  0  0  0
  3  4  1  0  0  0
  4  5  1  0  0  0
  5  6  1  0  0  0
  6  7  1  0  0  0
  7  8  1  0  0  0
  8  9  1  0  0  0
  9 10  1  0  0  0
 10 11  2  0  0  0
 11 12  1  0  0  0
 12 13  1  0  0  0
 13 14  1  0  0  0
 14 15  1  0  0  0
 15 16  1  0  0  0
 16 17  1  0  0  0
 17 18  1  0  0  0
 18 19  1  0  0  0
M  CHG 1  28  -1
M  END
> <minimizedAffinity>
-7.77634

> <CNNscore>
0.5621411204

> <CNNaffinity>
6.7506117821

> <CNN_VS>
3.7947964668

> <CNNaffinity_variance>
0.3146418929

$$$$
/media/chris/experiments/cd1a-new-docking/inputs/ligands/4x6e_ligand.pdb


 37 36  0  0  0  0  0  0  0  0999 V2000
  -40.2766   58.6976   65.3283 O   0  0  0  0  0  0  0  0  0  0  0  0
  -41.1348   58.7505   64.4825 C   0  0  0  0  0  0  0  0  0  0  0  0
  -42.5784   58.4088   64.6902 C   0  0  0  0  0  0  0  0  0  0  0  0
  -43.1233   58.8960   66.0274 C   0  0  0  0  0  0  0  0  0  0  0  0
  -44.5077   59.5165   65.9496 C   0  0  0  0  0  0  0  0  0  0  0  0
  -45.4712   58.9773   66.9921 C   0  0  0  0  0  0  0  0  0  0  0  0
  -46.9035   58.9017   66.4917 C   0  0  0  0  0  0  0  0  0  0  0  0
  -47.4934   60.2708   66.2367 C   0  0  0  0  0  0  0  0  0  0  0  0
  -47.9065   60.5269   64.8016 C   0  0  0  0  0  0  0  0  0  0  0  0
  -47.7157   59.3661   63.9026 C   0  0  0  0  0  0  0  0  0  0  0  0
  -48.6711   58.6329   63.3691 C   0  0  0  0  0  0  0  0  0  0  0  0
  -50.1455   58.8267   63.5136 C   0  0  0  0  0  0  0  0  0  0  0  0
  -50.8694   58.3052   62.2712 C   0  0  0  0  0  0  0  0  0  0  0  0
  -49.9860   57.6103   61.2453 C   0  0  0  0  0  0  0  0  0  0  0  0
  -50.3463   57.8885   59.7911 C   0  0  0  0  0  0  0  0  0  0  0  0
  -49.2539   57.4869   58.8054 C   0  0  0  0  0  0  0  0  0  0  0  0
  -48.3170   56.4123   59.3338 C   0  0  0  0  0  0  0  0  0  0  0  0
  -47.3951   55.7852   58.2988 C   0  0  0  0  0  0  0  0  0  0  0  0
  -47.1793   56.6650   57.1060 C   0  0  0  0  0  0  0  0  0  0  0  0
  -40.9240   59.1391   63.2215 O   0  0  0  0  0  0  0  0  0  0  0  0
  -40.2202   58.2315   62.3452 C   0  0  0  0  0  0  0  0  0  0  0  0
  -39.0619   58.9130   61.6479 C   0  0  0  0  0  0  0  0  0  0  0  0
  -39.3813   60.2740   61.3285 O   0  0  0  0  0  0  0  0  0  0  0  0
  -39.5346   60.7709   62.1473 H   0  0  0  0  0  0  0  0  0  0  0  0
  -37.7899   58.8730   62.4619 C   0  0  0  0  0  0  0  0  0  0  0  0
  -37.3293   60.2020   62.8066 O   0  0  0  0  0  0  0  0  0  0  0  0
  -37.5626   61.1249   64.0988 P   0  0  0  0  0  0  0  0  0  0  0  0
  -37.0015   60.3922   65.3164 O   0  0  0  0  0  0  0  0  0  0  0  0
  -39.0174   61.3117   64.2912 O   0  0  0  0  0  0  0  0  0  0  0  0
  -39.4462   60.4457   64.3755 H   0  0  0  0  0  0  0  0  0  0  0  0
  -36.7956   62.5723   63.9512 O   0  0  0  0  0  0  0  0  0  0  0  0
  -35.3585   62.7849   64.0018 C   0  0  0  0  0  0  0  0  0  0  0  0
  -35.0548   64.2473   64.2139 C   0  0  0  0  0  0  0  0  0  0  0  0
  -33.6677   64.5829   64.7301 N   0  0  0  0  0  0  0  0  0  0  0  0
  -32.7527   63.4110   64.5733 C   0  0  0  0  0  0  0  0  0  0  0  0
  -33.7687   64.9296   66.1792 C   0  0  0  0  0  0  0  0  0  0  0  0
  -33.0941   65.7499   63.9780 C   0  0  0  0  0  0  0  0  0  0  0  0
 34 33  1  0  0  0
 34 35  1  0  0  0
 34 36  1  0  0  0
 34 37  1  0  0  0
 22 23  1  0  0  0
 22 25  1  0  0  0
 22 21  1  0  0  0
 23 24  1  0  0  0
 27 26  1  0  0  0
 27 28  2  0  0  0
 27 31  1  0  0  0
 27 29  1  0  0  0
 25 26  1  0  0  0
 32 33  1  0  0  0
 32 31  1  0  0  0
 29 30  1  0  0  0
 20 21  1  0  0  0
 20  2  1  0  0  0
  1  2  2  0  0  0
  2  3  1  0  0  0
  3  4  1  0  0  0
  4  5  1  0  0  0
  5  6  1  0  0  0
  6  7  1  0  0  0
  7  8  1  0  0  0
  8  9  1  0  0  0
  9 10  1  0  0  0
 10 11  2  0  0  0
 11 12  1  0  0  0
 12 13  1  0  0  0
 13 14  1  0  0  0
 14 15  1  0  0  0
 15 16  1  0  0  0
 16 17  1  0  0  0
 17 18  1  0  0  0
 18 19  1  0  0  0
M  CHG 1  28  -1
M  END
> <minimizedAffinity>
-7.56057

> <CNNscore>
0.5545141101

> <CNNaffinity>
6.2406539917

> <CNN_VS>
3.4605307579

> <CNNaffinity_variance>
0.1656201035

$$$$
/media/chris/experiments/cd1a-new-docking/inputs/ligands/4x6e_ligand.pdb


 37 36  0  0  0  0  0  0  0  0999 V2000
  -42.6803   59.9838   61.8747 O   0  0  0  0  0  0  0  0  0  0  0  0
  -42.6041   59.4949   62.9747 C   0  0  0  0  0  0  0  0  0  0  0  0
  -43.7670   59.0535   63.8093 C   0  0  0  0  0  0  0  0  0  0  0  0
  -44.6849   60.2011   64.2133 C   0  0  0  0  0  0  0  0  0  0  0  0
  -46.1160   59.7838   64.5054 C   0  0  0  0  0  0  0  0  0  0  0  0
  -46.5286   60.0093   65.9493 C   0  0  0  0  0  0  0  0  0  0  0  0
  -47.4801   58.9440   66.4664 C   0  0  0  0  0  0  0  0  0  0  0  0
  -48.1778   58.2072   65.3449 C   0  0  0  0  0  0  0  0  0  0  0  0
  -49.6835   58.1144   65.4863 C   0  0  0  0  0  0  0  0  0  0  0  0
  -50.3761   59.4220   65.4334 C   0  0  0  0  0  0  0  0  0  0  0  0
  -50.5837   60.1467   64.3534 C   0  0  0  0  0  0  0  0  0  0  0  0
  -50.2099   59.8014   62.9485 C   0  0  0  0  0  0  0  0  0  0  0  0
  -51.1776   58.7583   62.3874 C   0  0  0  0  0  0  0  0  0  0  0  0
  -50.5955   57.8301   61.3313 C   0  0  0  0  0  0  0  0  0  0  0  0
  -49.8910   58.5305   60.1758 C   0  0  0  0  0  0  0  0  0  0  0  0
  -49.4320   57.5791   59.0756 C   0  0  0  0  0  0  0  0  0  0  0  0
  -48.5847   56.4221   59.5808 C   0  0  0  0  0  0  0  0  0  0  0  0
  -47.5391   55.9052   58.6040 C   0  0  0  0  0  0  0  0  0  0  0  0
  -47.5067   56.6829   57.3244 C   0  0  0  0  0  0  0  0  0  0  0  0
  -41.4548   59.2604   63.6148 O   0  0  0  0  0  0  0  0  0  0  0  0
  -40.6416   60.3978   63.9786 C   0  0  0  0  0  0  0  0  0  0  0  0
  -40.0284   60.2300   65.3527 C   0  0  0  0  0  0  0  0  0  0  0  0
  -40.4158   58.9809   65.9409 O   0  0  0  0  0  0  0  0  0  0  0  0
  -40.0754   58.2502   65.4015 H   0  0  0  0  0  0  0  0  0  0  0  0
  -38.5211   60.3296   65.3314 C   0  0  0  0  0  0  0  0  0  0  0  0
  -38.0573   61.5909   65.8713 O   0  0  0  0  0  0  0  0  0  0  0  0
  -36.8780   62.5863   65.4305 P   0  0  0  0  0  0  0  0  0  0  0  0
  -36.9267   63.8152   66.3368 O   0  0  0  0  0  0  0  0  0  0  0  0
  -37.1198   63.0196   64.0369 O   0  0  0  0  0  0  0  0  0  0  0  0
  -37.9942   63.4349   63.9745 H   0  0  0  0  0  0  0  0  0  0  0  0
  -35.4025   61.8752   65.5804 O   0  0  0  0  0  0  0  0  0  0  0  0
  -34.3215   61.9414   64.6108 C   0  0  0  0  0  0  0  0  0  0  0  0
  -33.3920   63.0822   64.9431 C   0  0  0  0  0  0  0  0  0  0  0  0
  -32.9574   63.9609   63.7847 N   0  0  0  0  0  0  0  0  0  0  0  0
  -31.5222   64.3522   63.9337 C   0  0  0  0  0  0  0  0  0  0  0  0
  -33.7990   65.1947   63.7795 C   0  0  0  0  0  0  0  0  0  0  0  0
  -33.1294   63.2358   62.4804 C   0  0  0  0  0  0  0  0  0  0  0  0
 34 33  1  0  0  0
 34 35  1  0  0  0
 34 36  1  0  0  0
 34 37  1  0  0  0
 22 23  1  0  0  0
 22 25  1  0  0  0
 22 21  1  0  0  0
 23 24  1  0  0  0
 27 26  1  0  0  0
 27 28  2  0  0  0
 27 31  1  0  0  0
 27 29  1  0  0  0
 25 26  1  0  0  0
 32 33  1  0  0  0
 32 31  1  0  0  0
 29 30  1  0  0  0
 20 21  1  0  0  0
 20  2  1  0  0  0
  1  2  2  0  0  0
  2  3  1  0  0  0
  3  4  1  0  0  0
  4  5  1  0  0  0
  5  6  1  0  0  0
  6  7  1  0  0  0
  7  8  1  0  0  0
  8  9  1  0  0  0
  9 10  1  0  0  0
 10 11  2  0  0  0
 11 12  1  0  0  0
 12 13  1  0  0  0
 13 14  1  0  0  0
 14 15  1  0  0  0
 15 16  1  0  0  0
 16 17  1  0  0  0
 17 18  1  0  0  0
 18 19  1  0  0  0
M  CHG 1  28  -1
M  END
> <minimizedAffinity>
-8.01883

> <CNNscore>
0.5458912253

> <CNNaffinity>
6.0610685349

> <CNN_VS>
3.3086841106

> <CNNaffinity_variance>
0.1035672799

$$$$
/media/chris/experiments/cd1a-new-docking/inputs/ligands/4x6e_ligand.pdb


 37 36  0  0  0  0  0  0  0  0999 V2000
  -40.4013   60.6326   62.6999 O   0  0  0  0  0  0  0  0  0  0  0  0
  -40.7437   59.5353   62.3346 C   0  0  0  0  0  0  0  0  0  0  0  0
  -42.1371   59.1471   61.9453 C   0  0  0  0  0  0  0  0  0  0  0  0
  -42.7999   58.2088   62.9468 C   0  0  0  0  0  0  0  0  0  0  0  0
  -44.2047   58.6195   63.3531 C   0  0  0  0  0  0  0  0  0  0  0  0
  -44.2468   59.8915   64.1815 C   0  0  0  0  0  0  0  0  0  0  0  0
  -45.6354   60.5024   64.2583 C   0  0  0  0  0  0  0  0  0  0  0  0
  -46.6899   59.4818   64.6239 C   0  0  0  0  0  0  0  0  0  0  0  0
  -47.9811   60.0667   65.1594 C   0  0  0  0  0  0  0  0  0  0  0  0
  -49.0156   59.0559   65.4761 C   0  0  0  0  0  0  0  0  0  0  0  0
  -50.2539   59.0465   65.0274 C   0  0  0  0  0  0  0  0  0  0  0  0
  -50.8776   60.0164   64.0773 C   0  0  0  0  0  0  0  0  0  0  0  0
  -51.1773   59.3290   62.7442 C   0  0  0  0  0  0  0  0  0  0  0  0
  -50.0544   59.3776   61.7185 C   0  0  0  0  0  0  0  0  0  0  0  0
  -49.7226   58.0427   61.0628 C   0  0  0  0  0  0  0  0  0  0  0  0
  -50.0665   57.9913   59.5777 C   0  0  0  0  0  0  0  0  0  0  0  0
  -48.9496   57.4342   58.7094 C   0  0  0  0  0  0  0  0  0  0  0  0
  -48.1795   56.2668   59.3082 C   0  0  0  0  0  0  0  0  0  0  0  0
  -47.0605   55.7988   58.4294 C   0  0  0  0  0  0  0  0  0  0  0  0
  -39.9168   58.4930   62.2097 O   0  0  0  0  0  0  0  0  0  0  0  0
  -38.5155   58.7072   62.4882 C   0  0  0  0  0  0  0  0  0  0  0  0
  -37.9761   57.6820   63.4630 C   0  0  0  0  0  0  0  0  0  0  0  0
  -36.6885   57.2050   63.0493 O   0  0  0  0  0  0  0  0  0  0  0  0
  -36.0555   57.9399   63.0514 H   0  0  0  0  0  0  0  0  0  0  0  0
  -37.8853   58.2144   64.8739 C   0  0  0  0  0  0  0  0  0  0  0  0
  -37.3602   59.5637   64.9073 O   0  0  0  0  0  0  0  0  0  0  0  0
  -37.9306   60.9298   65.5270 P   0  0  0  0  0  0  0  0  0  0  0  0
  -37.5798   60.9629   67.0136 O   0  0  0  0  0  0  0  0  0  0  0  0
  -39.4036   60.9331   65.3910 O   0  0  0  0  0  0  0  0  0  0  0  0
  -39.7705   60.1492   65.8289 H   0  0  0  0  0  0  0  0  0  0  0  0
  -37.2671   62.2455   64.7963 O   0  0  0  0  0  0  0  0  0  0  0  0
  -36.4339   63.2483   65.4392 C   0  0  0  0  0  0  0  0  0  0  0  0
  -35.6587   64.0242   64.4033 C   0  0  0  0  0  0  0  0  0  0  0  0
  -34.2097   64.3325   64.7325 N   0  0  0  0  0  0  0  0  0  0  0  0
  -33.7378   65.5207   63.9575 C   0  0  0  0  0  0  0  0  0  0  0  0
  -33.3748   63.1501   64.3647 C   0  0  0  0  0  0  0  0  0  0  0  0
  -34.0519   64.6163   66.1992 C   0  0  0  0  0  0  0  0  0  0  0  0
 34 33  1  0  0  0
 34 35  1  0  0  0
 34 36  1  0  0  0
 34 37  1  0  0  0
 22 23  1  0  0  0
 22 25  1  0  0  0
 22 21  1  0  0  0
 23 24  1  0  0  0
 27 26  1  0  0  0
 27 28  2  0  0  0
 27 31  1  0  0  0
 27 29  1  0  0  0
 25 26  1  0  0  0
 32 33  1  0  0  0
 32 31  1  0  0  0
 29 30  1  0  0  0
 20 21  1  0  0  0
 20  2  1  0  0  0
  1  2  2  0  0  0
  2  3  1  0  0  0
  3  4  1  0  0  0
  4  5  1  0  0  0
  5  6  1  0  0  0
  6  7  1  0  0  0
  7  8  1  0  0  0
  8  9  1  0  0  0
  9 10  1  0  0  0
 10 11  2  0  0  0
 11 12  1  0  0  0
 12 13  1  0  0  0
 13 14  1  0  0  0
 14 15  1  0  0  0
 15 16  1  0  0  0
 16 17  1  0  0  0
 17 18  1  0  0  0
 18 19  1  0  0  0
M  CHG 1  28  -1
M  END
> <minimizedAffinity>
-7.83299

> <CNNscore>
0.5023718476

> <CNNaffinity>
6.2697248459

> <CNN_VS>
3.1497333050

> <CNNaffinity_variance>
0.2268968374

$$$$
