/media/chris/experiments/cd1a-new-docking/inputs/ligands/4x6e_ligand.pdb


 37 36  0  0  0  0  0  0  0  0999 V2000
  -41.7676   54.9339   64.6300 O   0  0  0  0  0  0  0  0  0  0  0  0
  -42.1767   56.0593   64.4853 C   0  0  0  0  0  0  0  0  0  0  0  0
  -42.8198   56.8914   65.5520 C   0  0  0  0  0  0  0  0  0  0  0  0
  -44.2376   57.3256   65.2002 C   0  0  0  0  0  0  0  0  0  0  0  0
  -44.3790   58.8058   64.8892 C   0  0  0  0  0  0  0  0  0  0  0  0
  -45.7790   59.3428   65.1296 C   0  0  0  0  0  0  0  0  0  0  0  0
  -46.1197   60.5266   64.2408 C   0  0  0  0  0  0  0  0  0  0  0  0
  -47.6118   60.6977   64.0630 C   0  0  0  0  0  0  0  0  0  0  0  0
  -48.4158   59.4186   64.1790 C   0  0  0  0  0  0  0  0  0  0  0  0
  -49.8074   59.6207   64.6425 C   0  0  0  0  0  0  0  0  0  0  0  0
  -50.8660   59.7762   63.8743 C   0  0  0  0  0  0  0  0  0  0  0  0
  -50.9108   59.7434   62.3812 C   0  0  0  0  0  0  0  0  0  0  0  0
  -51.0326   58.3002   61.8895 C   0  0  0  0  0  0  0  0  0  0  0  0
  -50.1993   57.9565   60.6637 C   0  0  0  0  0  0  0  0  0  0  0  0
  -49.1805   56.8419   60.8690 C   0  0  0  0  0  0  0  0  0  0  0  0
  -48.5154   56.3787   59.5770 C   0  0  0  0  0  0  0  0  0  0  0  0
  -48.8044   57.2757   58.3838 C   0  0  0  0  0  0  0  0  0  0  0  0
  -47.8061   57.1798   57.2398 C   0  0  0  0  0  0  0  0  0  0  0  0
  -47.2242   55.8076   57.0917 C   0  0  0  0  0  0  0  0  0  0  0  0
  -42.1044   56.7434   63.3398 O   0  0  0  0  0  0  0  0  0  0  0  0
  -41.0971   56.3500   62.3821 C   0  0  0  0  0  0  0  0  0  0  0  0
  -40.4673   57.5504   61.7077 C   0  0  0  0  0  0  0  0  0  0  0  0
  -40.3666   57.3517   60.2910 O   0  0  0  0  0  0  0  0  0  0  0  0
  -41.2555   57.2640   59.9128 H   0  0  0  0  0  0  0  0  0  0  0  0
  -41.2190   58.8315   61.9833 C   0  0  0  0  0  0  0  0  0  0  0  0
  -40.3912   59.8053   62.6645 O   0  0  0  0  0  0  0  0  0  0  0  0
  -40.3706   60.3343   64.1797 P   0  0  0  0  0  0  0  0  0  0  0  0
  -40.4329   59.1233   65.1091 O   0  0  0  0  0  0  0  0  0  0  0  0
  -41.5731   61.1651   64.4079 O   0  0  0  0  0  0  0  0  0  0  0  0
  -42.3676   60.6448   64.2108 H   0  0  0  0  0  0  0  0  0  0  0  0
  -38.9978   61.1805   64.5031 O   0  0  0  0  0  0  0  0  0  0  0  0
  -37.7076   60.6107   64.8546 C   0  0  0  0  0  0  0  0  0  0  0  0
  -36.9161   60.3034   63.6075 C   0  0  0  0  0  0  0  0  0  0  0  0
  -36.3195   58.9115   63.5100 N   0  0  0  0  0  0  0  0  0  0  0  0
  -36.5948   58.1350   64.7576 C   0  0  0  0  0  0  0  0  0  0  0  0
  -34.8419   59.0367   63.3323 C   0  0  0  0  0  0  0  0  0  0  0  0
  -36.9004   58.1704   62.3396 C   0  0  0  0  0  0  0  0  0  0  0  0
 34 33  1  0  0  0
 34 35  1  0  0  0
 34 36  1  0  0  0
 34 37  1  0  0  0
 22 23  1  0  0  0
 22 25  1  0  0  0
 22 21  1  0  0  0
 23 24  1  0  0  0
 27 26  1  0  0  0
 27 28  2  0  0  0
 27 31  1  0  0  0
 27 29  1  0  0  0
 25 26  1  0  0  0
 32 33  1  0  0  0
 32 31  1  0  0  0
 29 30  1  0  0  0
 20 21  1  0  0  0
 20  2  1  0  0  0
  1  2  2  0  0  0
  2  3  1  0  0  0
  3  4  1  0  0  0
  4  5  1  0  0  0
  5  6  1  0  0  0
  6  7  1  0  0  0
  7  8  1  0  0  0
  8  9  1  0  0  0
  9 10  1  0  0  0
 10 11  2  0  0  0
 11 12  1  0  0  0
 12 13  1  0  0  0
 13 14  1  0  0  0
 14 15  1  0  0  0
 15 16  1  0  0  0
 16 17  1  0  0  0
 17 18  1  0  0  0
 18 19  1  0  0  0
M  CHG 1  28  -1
M  END
> <minimizedAffinity>
-7.81197

> <CNNscore>
0.7815124393

> <CNNaffinity>
6.9974975586

> <CNN_VS>
5.4686312675

> <CNNaffinity_variance>
0.4947372079

$$$$
/media/chris/experiments/cd1a-new-docking/inputs/ligands/4x6e_ligand.pdb


 37 36  0  0  0  0  0  0  0  0999 V2000
  -42.4773   55.6803   64.9717 O   0  0  0  0  0  0  0  0  0  0  0  0
  -42.6117   56.8107   65.3704 C   0  0  0  0  0  0  0  0  0  0  0  0
  -43.6497   57.2667   66.3493 C   0  0  0  0  0  0  0  0  0  0  0  0
  -44.0159   58.7377   66.1931 C   0  0  0  0  0  0  0  0  0  0  0  0
  -45.3148   59.1342   66.8737 C   0  0  0  0  0  0  0  0  0  0  0  0
  -46.4905   59.2385   65.9183 C   0  0  0  0  0  0  0  0  0  0  0  0
  -46.3607   60.3967   64.9440 C   0  0  0  0  0  0  0  0  0  0  0  0
  -47.6610   60.6923   64.2305 C   0  0  0  0  0  0  0  0  0  0  0  0
  -48.7567   59.6707   64.4581 C   0  0  0  0  0  0  0  0  0  0  0  0
  -50.0965   60.1130   64.0095 C   0  0  0  0  0  0  0  0  0  0  0  0
  -50.8840   59.4728   63.1698 C   0  0  0  0  0  0  0  0  0  0  0  0
  -50.6270   58.1525   62.5192 C   0  0  0  0  0  0  0  0  0  0  0  0
  -50.9107   58.2407   61.0188 C   0  0  0  0  0  0  0  0  0  0  0  0
  -49.6857   58.4106   60.1325 C   0  0  0  0  0  0  0  0  0  0  0  0
  -49.4143   57.2529   59.1793 C   0  0  0  0  0  0  0  0  0  0  0  0
  -48.5393   56.1592   59.7828 C   0  0  0  0  0  0  0  0  0  0  0  0
  -47.2945   55.8507   58.9663 C   0  0  0  0  0  0  0  0  0  0  0  0
  -47.4954   55.8193   57.4586 C   0  0  0  0  0  0  0  0  0  0  0  0
  -47.2797   57.1555   56.8171 C   0  0  0  0  0  0  0  0  0  0  0  0
  -41.8360   57.8345   65.0018 O   0  0  0  0  0  0  0  0  0  0  0  0
  -40.7905   57.5757   64.0393 C   0  0  0  0  0  0  0  0  0  0  0  0
  -39.6603   58.5761   64.1585 C   0  0  0  0  0  0  0  0  0  0  0  0
  -39.7254   59.5544   63.1120 O   0  0  0  0  0  0  0  0  0  0  0  0
  -40.5472   60.0630   63.1955 H   0  0  0  0  0  0  0  0  0  0  0  0
  -39.6419   59.2738   65.4983 C   0  0  0  0  0  0  0  0  0  0  0  0
  -38.3175   59.7512   65.8383 O   0  0  0  0  0  0  0  0  0  0  0  0
  -37.2820   60.7048   65.0672 P   0  0  0  0  0  0  0  0  0  0  0  0
  -38.0761   61.8127   64.3772 O   0  0  0  0  0  0  0  0  0  0  0  0
  -36.5863   59.9097   64.0319 O   0  0  0  0  0  0  0  0  0  0  0  0
  -37.2399   59.5162   63.4329 H   0  0  0  0  0  0  0  0  0  0  0  0
  -36.2075   61.3911   66.1062 O   0  0  0  0  0  0  0  0  0  0  0  0
  -34.7828   61.5594   65.8717 C   0  0  0  0  0  0  0  0  0  0  0  0
  -34.5487   62.6152   64.8198 C   0  0  0  0  0  0  0  0  0  0  0  0
  -33.9075   63.9081   65.2890 N   0  0  0  0  0  0  0  0  0  0  0  0
  -34.5660   64.3955   66.5397 C   0  0  0  0  0  0  0  0  0  0  0  0
  -34.0727   64.9382   64.2203 C   0  0  0  0  0  0  0  0  0  0  0  0
  -32.4444   63.7022   65.5600 C   0  0  0  0  0  0  0  0  0  0  0  0
 34 33  1  0  0  0
 34 35  1  0  0  0
 34 36  1  0  0  0
 34 37  1  0  0  0
 22 23  1  0  0  0
 22 25  1  0  0  0
 22 21  1  0  0  0
 23 24  1  0  0  0
 27 26  1  0  0  0
 27 28  2  0  0  0
 27 31  1  0  0  0
 27 29  1  0  0  0
 25 26  1  0  0  0
 32 33  1  0  0  0
 32 31  1  0  0  0
 29 30  1  0  0  0
 20 21  1  0  0  0
 20  2  1  0  0  0
  1  2  2  0  0  0
  2  3  1  0  0  0
  3  4  1  0  0  0
  4  5  1  0  0  0
  5  6  1  0  0  0
  6  7  1  0  0  0
  7  8  1  0  0  0
  8  9  1  0  0  0
  9 10  1  0  0  0
 10 11  2  0  0  0
 11 12  1  0  0  0
 12 13  1  0  0  0
 13 14  1  0  0  0
 14 15  1  0  0  0
 15 16  1  0  0  0
 16 17  1  0  0  0
 17 18  1  0  0  0
 18 19  1  0  0  0
M  CHG 1  28  -1
M  END
> <minimizedAffinity>
-7.90778

> <CNNscore>
0.7809545994

> <CNNaffinity>
6.5491170883

> <CNN_VS>
5.1145629883

> <CNNaffinity_variance>
0.2679615319

$$$$
/media/chris/experiments/cd1a-new-docking/inputs/ligands/4x6e_ligand.pdb


 37 36  0  0  0  0  0  0  0  0999 V2000
  -40.9926   57.1921   64.8795 O   0  0  0  0  0  0  0  0  0  0  0  0
  -40.5483   58.2153   65.3384 C   0  0  0  0  0  0  0  0  0  0  0  0
  -41.2773   59.1364   66.2678 C   0  0  0  0  0  0  0  0  0  0  0  0
  -42.6090   58.5724   66.7485 C   0  0  0  0  0  0  0  0  0  0  0  0
  -43.7837   59.5224   66.5905 C   0  0  0  0  0  0  0  0  0  0  0  0
  -45.0754   58.8264   66.1990 C   0  0  0  0  0  0  0  0  0  0  0  0
  -45.5931   59.2605   64.8385 C   0  0  0  0  0  0  0  0  0  0  0  0
  -46.6437   60.3432   64.9452 C   0  0  0  0  0  0  0  0  0  0  0  0
  -47.8857   60.1072   64.1099 C   0  0  0  0  0  0  0  0  0  0  0  0
  -48.5249   58.7913   64.3379 C   0  0  0  0  0  0  0  0  0  0  0  0
  -49.6986   58.4090   63.8782 C   0  0  0  0  0  0  0  0  0  0  0  0
  -50.6220   59.1890   62.9999 C   0  0  0  0  0  0  0  0  0  0  0  0
  -50.1745   59.0851   61.5410 C   0  0  0  0  0  0  0  0  0  0  0  0
  -50.7569   57.9149   60.7622 C   0  0  0  0  0  0  0  0  0  0  0  0
  -49.7826   56.7762   60.4855 C   0  0  0  0  0  0  0  0  0  0  0  0
  -48.8882   57.0204   59.2745 C   0  0  0  0  0  0  0  0  0  0  0  0
  -47.8358   55.9436   59.0634 C   0  0  0  0  0  0  0  0  0  0  0  0
  -47.0639   56.0344   57.7556 C   0  0  0  0  0  0  0  0  0  0  0  0
  -47.7276   56.9260   56.7515 C   0  0  0  0  0  0  0  0  0  0  0  0
  -39.3192   58.6778   65.0916 O   0  0  0  0  0  0  0  0  0  0  0  0
  -38.4305   57.8478   64.3121 C   0  0  0  0  0  0  0  0  0  0  0  0
  -36.9842   58.0450   64.7145 C   0  0  0  0  0  0  0  0  0  0  0  0
  -36.1016   57.3541   63.8199 O   0  0  0  0  0  0  0  0  0  0  0  0
  -36.1879   57.7268   62.9286 H   0  0  0  0  0  0  0  0  0  0  0  0
  -36.5936   59.5028   64.7797 C   0  0  0  0  0  0  0  0  0  0  0  0
  -36.8006   60.1726   63.5124 O   0  0  0  0  0  0  0  0  0  0  0  0
  -37.8425   61.3001   63.0440 P   0  0  0  0  0  0  0  0  0  0  0  0
  -37.0883   62.6223   62.9131 O   0  0  0  0  0  0  0  0  0  0  0  0
  -38.8788   61.4509   64.0888 O   0  0  0  0  0  0  0  0  0  0  0  0
  -38.4563   61.6691   64.9342 H   0  0  0  0  0  0  0  0  0  0  0  0
  -38.5180   60.9291   61.5911 O   0  0  0  0  0  0  0  0  0  0  0  0
  -39.4176   59.8180   61.3277 C   0  0  0  0  0  0  0  0  0  0  0  0
  -40.6556   59.9357   62.1818 C   0  0  0  0  0  0  0  0  0  0  0  0
  -41.9808   59.6636   61.4944 N   0  0  0  0  0  0  0  0  0  0  0  0
  -42.9371   59.0105   62.4401 C   0  0  0  0  0  0  0  0  0  0  0  0
  -41.7402   58.7489   60.3386 C   0  0  0  0  0  0  0  0  0  0  0  0
  -42.5889   60.9441   60.9974 C   0  0  0  0  0  0  0  0  0  0  0  0
 34 33  1  0  0  0
 34 35  1  0  0  0
 34 36  1  0  0  0
 34 37  1  0  0  0
 22 23  1  0  0  0
 22 25  1  0  0  0
 22 21  1  0  0  0
 23 24  1  0  0  0
 27 26  1  0  0  0
 27 28  2  0  0  0
 27 31  1  0  0  0
 27 29  1  0  0  0
 25 26  1  0  0  0
 32 33  1  0  0  0
 32 31  1  0  0  0
 29 30  1  0  0  0
 20 21  1  0  0  0
 20  2  1  0  0  0
  1  2  2  0  0  0
  2  3  1  0  0  0
  3  4  1  0  0  0
  4  5  1  0  0  0
  5  6  1  0  0  0
  6  7  1  0  0  0
  7  8  1  0  0  0
  8  9  1  0  0  0
  9 10  1  0  0  0
 10 11  2  0  0  0
 11 12  1  0  0  0
 12 13  1  0  0  0
 13 14  1  0  0  0
 14 15  1  0  0  0
 15 16  1  0  0  0
 16 17  1  0  0  0
 17 18  1  0  0  0
 18 19  1  0  0  0
M  CHG 1  28  -1
M  END
> <minimizedAffinity>
-7.76014

> <CNNscore>
0.7201194167

> <CNNaffinity>
7.0525884628

> <CNN_VS>
5.0787057877

> <CNNaffinity_variance>
0.1498288065

$$$$
/media/chris/experiments/cd1a-new-docking/inputs/ligands/4x6e_ligand.pdb


 37 36  0  0  0  0  0  0  0  0999 V2000
  -40.4070   58.6229   65.7424 O   0  0  0  0  0  0  0  0  0  0  0  0
  -40.6130   59.7841   65.9953 C   0  0  0  0  0  0  0  0  0  0  0  0
  -41.9094   60.3460   66.4925 C   0  0  0  0  0  0  0  0  0  0  0  0
  -42.8436   59.2848   67.0617 C   0  0  0  0  0  0  0  0  0  0  0  0
  -44.2837   59.4036   66.5932 C   0  0  0  0  0  0  0  0  0  0  0  0
  -44.4281   59.4194   65.0816 C   0  0  0  0  0  0  0  0  0  0  0  0
  -45.6590   60.1759   64.6124 C   0  0  0  0  0  0  0  0  0  0  0  0
  -46.8956   59.7989   65.3972 C   0  0  0  0  0  0  0  0  0  0  0  0
  -47.5806   58.5299   64.9319 C   0  0  0  0  0  0  0  0  0  0  0  0
  -48.8521   58.2391   65.6325 C   0  0  0  0  0  0  0  0  0  0  0  0
  -50.0538   58.6169   65.2478 C   0  0  0  0  0  0  0  0  0  0  0  0
  -50.4084   59.3791   64.0125 C   0  0  0  0  0  0  0  0  0  0  0  0
  -50.8043   58.4142   62.8937 C   0  0  0  0  0  0  0  0  0  0  0  0
  -49.9209   58.4539   61.6555 C   0  0  0  0  0  0  0  0  0  0  0  0
  -50.4426   57.6569   60.4660 C   0  0  0  0  0  0  0  0  0  0  0  0
  -49.7002   57.9467   59.1656 C   0  0  0  0  0  0  0  0  0  0  0  0
  -48.5826   56.9605   58.8656 C   0  0  0  0  0  0  0  0  0  0  0  0
  -48.1818   56.8556   57.4018 C   0  0  0  0  0  0  0  0  0  0  0  0
  -47.0695   55.8787   57.1739 C   0  0  0  0  0  0  0  0  0  0  0  0
  -39.6987   60.7518   65.8794 O   0  0  0  0  0  0  0  0  0  0  0  0
  -38.3058   60.3715   65.9201 C   0  0  0  0  0  0  0  0  0  0  0  0
  -37.4236   61.4072   65.2556 C   0  0  0  0  0  0  0  0  0  0  0  0
  -36.8845   62.3207   66.2207 O   0  0  0  0  0  0  0  0  0  0  0  0
  -36.3156   61.8378   66.8404 H   0  0  0  0  0  0  0  0  0  0  0  0
  -36.2952   60.7873   64.4652 C   0  0  0  0  0  0  0  0  0  0  0  0
  -36.7831   60.0508   63.3176 O   0  0  0  0  0  0  0  0  0  0  0  0
  -36.6402   58.5131   62.8804 P   0  0  0  0  0  0  0  0  0  0  0  0
  -37.4443   57.6612   63.8612 O   0  0  0  0  0  0  0  0  0  0  0  0
  -35.2164   58.1236   62.9763 O   0  0  0  0  0  0  0  0  0  0  0  0
  -34.8984   58.2803   63.8792 H   0  0  0  0  0  0  0  0  0  0  0  0
  -37.2202   58.2628   61.3619 O   0  0  0  0  0  0  0  0  0  0  0  0
  -38.2716   59.0290   60.7134 C   0  0  0  0  0  0  0  0  0  0  0  0
  -39.4272   58.1282   60.3538 C   0  0  0  0  0  0  0  0  0  0  0  0
  -40.5618   58.0487   61.3584 N   0  0  0  0  0  0  0  0  0  0  0  0
  -40.4308   56.8202   62.2004 C   0  0  0  0  0  0  0  0  0  0  0  0
  -41.8553   57.9914   60.6141 C   0  0  0  0  0  0  0  0  0  0  0  0
  -40.5566   59.2539   62.2551 C   0  0  0  0  0  0  0  0  0  0  0  0
 34 33  1  0  0  0
 34 35  1  0  0  0
 34 36  1  0  0  0
 34 37  1  0  0  0
 22 23  1  0  0  0
 22 25  1  0  0  0
 22 21  1  0  0  0
 23 24  1  0  0  0
 27 26  1  0  0  0
 27 28  2  0  0  0
 27 31  1  0  0  0
 27 29  1  0  0  0
 25 26  1  0  0  0
 32 33  1  0  0  0
 32 31  1  0  0  0
 29 30  1  0  0  0
 20 21  1  0  0  0
 20  2  1  0  0  0
  1  2  2  0  0  0
  2  3  1  0  0  0
  3  4  1  0  0  0
  4  5  1  0  0  0
  5  6  1  0  0  0
  6  7  1  0  0  0
  7  8  1  0  0  0
  8  9  1  0  0  0
  9 10  1  0  0  0
 10 11  2  0  0  0
 11 12  1  0  0  0
 12 13  1  0  0  0
 13 14  1  0  0  0
 14 15  1  0  0  0
 15 16  1  0  0  0
 16 17  1  0  0  0
 17 18  1  0  0  0
 18 19  1  0  0  0
M  CHG 1  28  -1
M  END
> <minimizedAffinity>
-8.09422

> <CNNscore>
0.7173933983

> <CNNaffinity>
7.0424132347

> <CNN_VS>
5.0521807671

> <CNNaffinity_variance>
0.2805289328

$$$$
/media/chris/experiments/cd1a-new-docking/inputs/ligands/4x6e_ligand.pdb


 37 36  0  0  0  0  0  0  0  0999 V2000
  -42.3335   57.8128   65.9895 O   0  0  0  0  0  0  0  0  0  0  0  0
  -42.2443   58.9391   66.4116 C   0  0  0  0  0  0  0  0  0  0  0  0
  -43.3748   59.7466   66.9717 C   0  0  0  0  0  0  0  0  0  0  0  0
  -44.7426   59.2781   66.4898 C   0  0  0  0  0  0  0  0  0  0  0  0
  -45.1527   59.8338   65.1369 C   0  0  0  0  0  0  0  0  0  0  0  0
  -46.6170   59.6027   64.8072 C   0  0  0  0  0  0  0  0  0  0  0  0
  -47.5446   59.9453   65.9603 C   0  0  0  0  0  0  0  0  0  0  0  0
  -48.5479   58.8469   66.2330 C   0  0  0  0  0  0  0  0  0  0  0  0
  -49.5351   58.5959   65.1113 C   0  0  0  0  0  0  0  0  0  0  0  0
  -50.4379   59.7367   64.8357 C   0  0  0  0  0  0  0  0  0  0  0  0
  -51.1099   59.9426   63.7218 C   0  0  0  0  0  0  0  0  0  0  0  0
  -51.1471   59.0636   62.5141 C   0  0  0  0  0  0  0  0  0  0  0  0
  -50.1532   59.5664   61.4659 C   0  0  0  0  0  0  0  0  0  0  0  0
  -49.9316   58.6393   60.2799 C   0  0  0  0  0  0  0  0  0  0  0  0
  -50.3514   57.1919   60.5063 C   0  0  0  0  0  0  0  0  0  0  0  0
  -49.2685   56.1800   60.1462 C   0  0  0  0  0  0  0  0  0  0  0  0
  -48.1435   56.7605   59.3043 C   0  0  0  0  0  0  0  0  0  0  0  0
  -47.7393   55.9302   58.0954 C   0  0  0  0  0  0  0  0  0  0  0  0
  -47.4241   56.7690   56.8951 C   0  0  0  0  0  0  0  0  0  0  0  0
  -41.1060   59.6377   66.4537 O   0  0  0  0  0  0  0  0  0  0  0  0
  -39.9142   59.0170   65.9237 C   0  0  0  0  0  0  0  0  0  0  0  0
  -38.9973   60.0312   65.2734 C   0  0  0  0  0  0  0  0  0  0  0  0
  -38.6326   61.0643   66.1988 O   0  0  0  0  0  0  0  0  0  0  0  0
  -38.1310   60.6777   66.9336 H   0  0  0  0  0  0  0  0  0  0  0  0
  -37.7473   59.4024   64.7039 C   0  0  0  0  0  0  0  0  0  0  0  0
  -37.6475   59.6033   63.2731 O   0  0  0  0  0  0  0  0  0  0  0  0
  -38.4652   60.5349   62.2536 P   0  0  0  0  0  0  0  0  0  0  0  0
  -38.1901   60.0443   60.8331 O   0  0  0  0  0  0  0  0  0  0  0  0
  -37.9679   61.9226   62.3768 O   0  0  0  0  0  0  0  0  0  0  0  0
  -37.0132   61.9402   62.2062 H   0  0  0  0  0  0  0  0  0  0  0  0
  -40.0838   60.4602   62.5359 O   0  0  0  0  0  0  0  0  0  0  0  0
  -41.0091   59.5063   61.9469 C   0  0  0  0  0  0  0  0  0  0  0  0
  -40.8807   58.1664   62.6281 C   0  0  0  0  0  0  0  0  0  0  0  0
  -40.4014   57.0123   61.7672 N   0  0  0  0  0  0  0  0  0  0  0  0
  -41.1792   55.7725   62.0728 C   0  0  0  0  0  0  0  0  0  0  0  0
  -38.9582   56.7646   62.0612 C   0  0  0  0  0  0  0  0  0  0  0  0
  -40.5634   57.3395   60.3101 C   0  0  0  0  0  0  0  0  0  0  0  0
 34 33  1  0  0  0
 34 35  1  0  0  0
 34 36  1  0  0  0
 34 37  1  0  0  0
 22 23  1  0  0  0
 22 25  1  0  0  0
 22 21  1  0  0  0
 23 24  1  0  0  0
 27 26  1  0  0  0
 27 28  2  0  0  0
 27 31  1  0  0  0
 27 29  1  0  0  0
 25 26  1  0  0  0
 32 33  1  0  0  0
 32 31  1  0  0  0
 29 30  1  0  0  0
 20 21  1  0  0  0
 20  2  1  0  0  0
  1  2  2  0  0  0
  2  3  1  0  0  0
  3  4  1  0  0  0
  4  5  1  0  0  0
  5  6  1  0  0  0
  6  7  1  0  0  0
  7  8  1  0  0  0
  8  9  1  0  0  0
  9 10  1  0  0  0
 10 11  2  0  0  0
 11 12  1  0  0  0
 12 13  1  0  0  0
 13 14  1  0  0  0
 14 15  1  0  0  0
 15 16  1  0  0  0
 16 17  1  0  0  0
 17 18  1  0  0  0
 18 19  1  0  0  0
M  CHG 1  28  -1
M  END
> <minimizedAffinity>
-7.94350

> <CNNscore>
0.7164987326

> <CNNaffinity>
7.0086011887

> <CNN_VS>
5.0216536522

> <CNNaffinity_variance>
0.0884098336

$$$$
/media/chris/experiments/cd1a-new-docking/inputs/ligands/4x6e_ligand.pdb


 37 36  0  0  0  0  0  0  0  0999 V2000
  -42.4739   55.6312   64.8786 O   0  0  0  0  0  0  0  0  0  0  0  0
  -42.8402   56.7564   65.1117 C   0  0  0  0  0  0  0  0  0  0  0  0
  -43.6859   57.1685   66.2773 C   0  0  0  0  0  0  0  0  0  0  0  0
  -45.1115   57.5361   65.8834 C   0  0  0  0  0  0  0  0  0  0  0  0
  -45.5487   58.9182   66.3372 C   0  0  0  0  0  0  0  0  0  0  0  0
  -47.0519   59.0511   66.5070 C   0  0  0  0  0  0  0  0  0  0  0  0
  -47.8354   58.3760   65.3945 C   0  0  0  0  0  0  0  0  0  0  0  0
  -47.7189   59.1177   64.0815 C   0  0  0  0  0  0  0  0  0  0  0  0
  -48.5318   60.3937   63.9989 C   0  0  0  0  0  0  0  0  0  0  0  0
  -49.9047   60.2705   64.5392 C   0  0  0  0  0  0  0  0  0  0  0  0
  -50.9817   59.9456   63.8541 C   0  0  0  0  0  0  0  0  0  0  0  0
  -51.0570   59.5918   62.4043 C   0  0  0  0  0  0  0  0  0  0  0  0
  -50.8480   58.0882   62.2176 C   0  0  0  0  0  0  0  0  0  0  0  0
  -50.7029   57.6242   60.7758 C   0  0  0  0  0  0  0  0  0  0  0  0
  -49.5280   56.6893   60.5149 C   0  0  0  0  0  0  0  0  0  0  0  0
  -48.8412   56.9333   59.1752 C   0  0  0  0  0  0  0  0  0  0  0  0
  -47.7024   55.9682   58.8862 C   0  0  0  0  0  0  0  0  0  0  0  0
  -47.3325   55.8180   57.4182 C   0  0  0  0  0  0  0  0  0  0  0  0
  -47.5255   57.0827   56.6393 C   0  0  0  0  0  0  0  0  0  0  0  0
  -42.5312   57.8178   64.3609 O   0  0  0  0  0  0  0  0  0  0  0  0
  -41.1333   58.0834   64.1119 C   0  0  0  0  0  0  0  0  0  0  0  0
  -40.6604   57.4333   62.8289 C   0  0  0  0  0  0  0  0  0  0  0  0
  -41.3073   58.0137   61.6881 O   0  0  0  0  0  0  0  0  0  0  0  0
  -41.0661   58.9509   61.6218 H   0  0  0  0  0  0  0  0  0  0  0  0
  -39.1622   57.5172   62.6538 C   0  0  0  0  0  0  0  0  0  0  0  0
  -38.7421   58.8396   62.2389 O   0  0  0  0  0  0  0  0  0  0  0  0
  -37.8660   59.9719   62.9645 P   0  0  0  0  0  0  0  0  0  0  0  0
  -38.0246   61.2737   62.1806 O   0  0  0  0  0  0  0  0  0  0  0  0
  -36.4433   59.5686   62.9241 O   0  0  0  0  0  0  0  0  0  0  0  0
  -36.1730   59.4283   62.0032 H   0  0  0  0  0  0  0  0  0  0  0  0
  -38.3659   60.2205   64.5115 O   0  0  0  0  0  0  0  0  0  0  0  0
  -37.5145   60.5676   65.6375 C   0  0  0  0  0  0  0  0  0  0  0  0
  -37.0726   62.0063   65.5330 C   0  0  0  0  0  0  0  0  0  0  0  0
  -35.5759   62.2562   65.5272 N   0  0  0  0  0  0  0  0  0  0  0  0
  -35.1818   63.1039   66.6940 C   0  0  0  0  0  0  0  0  0  0  0  0
  -35.2158   62.9695   64.2654 C   0  0  0  0  0  0  0  0  0  0  0  0
  -34.8248   60.9571   65.5960 C   0  0  0  0  0  0  0  0  0  0  0  0
 34 33  1  0  0  0
 34 35  1  0  0  0
 34 36  1  0  0  0
 34 37  1  0  0  0
 22 23  1  0  0  0
 22 25  1  0  0  0
 22 21  1  0  0  0
 23 24  1  0  0  0
 27 26  1  0  0  0
 27 28  2  0  0  0
 27 31  1  0  0  0
 27 29  1  0  0  0
 25 26  1  0  0  0
 32 33  1  0  0  0
 32 31  1  0  0  0
 29 30  1  0  0  0
 20 21  1  0  0  0
 20  2  1  0  0  0
  1  2  2  0  0  0
  2  3  1  0  0  0
  3  4  1  0  0  0
  4  5  1  0  0  0
  5  6  1  0  0  0
  6  7  1  0  0  0
  7  8  1  0  0  0
  8  9  1  0  0  0
  9 10  1  0  0  0
 10 11  2  0  0  0
 11 12  1  0  0  0
 12 13  1  0  0  0
 13 14  1  0  0  0
 14 15  1  0  0  0
 15 16  1  0  0  0
 16 17  1  0  0  0
 17 18  1  0  0  0
 18 19  1  0  0  0
M  CHG 1  28  -1
M  END
> <minimizedAffinity>
-7.96018

> <CNNscore>
0.7157930732

> <CNNaffinity>
6.6478815079

> <CNN_VS>
4.7585077286

> <CNNaffinity_variance>
0.2264081240

$$$$
/media/chris/experiments/cd1a-new-docking/inputs/ligands/4x6e_ligand.pdb


 37 36  0  0  0  0  0  0  0  0999 V2000
  -41.9576   60.1026   63.7124 O   0  0  0  0  0  0  0  0  0  0  0  0
  -42.2762   59.0646   63.1872 C   0  0  0  0  0  0  0  0  0  0  0  0
  -43.6790   58.5574   63.0504 C   0  0  0  0  0  0  0  0  0  0  0  0
  -44.6230   59.1122   64.1105 C   0  0  0  0  0  0  0  0  0  0  0  0
  -45.2417   58.0565   65.0106 C   0  0  0  0  0  0  0  0  0  0  0  0
  -45.0743   58.3510   66.4910 C   0  0  0  0  0  0  0  0  0  0  0  0
  -46.1947   59.2080   67.0545 C   0  0  0  0  0  0  0  0  0  0  0  0
  -47.5403   58.8511   66.4635 C   0  0  0  0  0  0  0  0  0  0  0  0
  -48.3494   60.0324   65.9676 C   0  0  0  0  0  0  0  0  0  0  0  0
  -48.2649   60.2503   64.5056 C   0  0  0  0  0  0  0  0  0  0  0  0
  -49.0737   59.7438   63.5977 C   0  0  0  0  0  0  0  0  0  0  0  0
  -50.2692   58.8794   63.8350 C   0  0  0  0  0  0  0  0  0  0  0  0
  -50.8433   58.3970   62.5020 C   0  0  0  0  0  0  0  0  0  0  0  0
  -49.8185   58.1280   61.4099 C   0  0  0  0  0  0  0  0  0  0  0  0
  -50.4053   57.7990   60.0425 C   0  0  0  0  0  0  0  0  0  0  0  0
  -49.3500   57.5079   58.9806 C   0  0  0  0  0  0  0  0  0  0  0  0
  -48.3725   56.4116   59.3731 C   0  0  0  0  0  0  0  0  0  0  0  0
  -47.4267   55.9570   58.2716 C   0  0  0  0  0  0  0  0  0  0  0  0
  -47.4785   56.8393   57.0623 C   0  0  0  0  0  0  0  0  0  0  0  0
  -41.4140   58.2083   62.6314 O   0  0  0  0  0  0  0  0  0  0  0  0
  -40.4778   58.7283   61.6620 C   0  0  0  0  0  0  0  0  0  0  0  0
  -39.0460   58.5776   62.1306 C   0  0  0  0  0  0  0  0  0  0  0  0
  -38.2887   57.7673   61.2214 O   0  0  0  0  0  0  0  0  0  0  0  0
  -38.2460   58.2051   60.3568 H   0  0  0  0  0  0  0  0  0  0  0  0
  -38.3529   59.9071   62.3156 C   0  0  0  0  0  0  0  0  0  0  0  0
  -38.7028   60.5253   63.5778 O   0  0  0  0  0  0  0  0  0  0  0  0
  -38.4749   60.0747   65.1012 P   0  0  0  0  0  0  0  0  0  0  0  0
  -37.3670   59.0230   65.1274 O   0  0  0  0  0  0  0  0  0  0  0  0
  -39.7216   59.4576   65.6044 O   0  0  0  0  0  0  0  0  0  0  0  0
  -39.9670   58.7128   65.0334 H   0  0  0  0  0  0  0  0  0  0  0  0
  -38.0224   61.3447   66.0432 O   0  0  0  0  0  0  0  0  0  0  0  0
  -36.7213   61.5233   66.6665 C   0  0  0  0  0  0  0  0  0  0  0  0
  -35.6941   61.9039   65.6292 C   0  0  0  0  0  0  0  0  0  0  0  0
  -35.3806   63.3828   65.4974 N   0  0  0  0  0  0  0  0  0  0  0  0
  -33.9554   63.5820   65.0919 C   0  0  0  0  0  0  0  0  0  0  0  0
  -35.6049   64.0381   66.8206 C   0  0  0  0  0  0  0  0  0  0  0  0
  -36.2710   64.0202   64.4691 C   0  0  0  0  0  0  0  0  0  0  0  0
 34 33  1  0  0  0
 34 35  1  0  0  0
 34 36  1  0  0  0
 34 37  1  0  0  0
 22 23  1  0  0  0
 22 25  1  0  0  0
 22 21  1  0  0  0
 23 24  1  0  0  0
 27 26  1  0  0  0
 27 28  2  0  0  0
 27 31  1  0  0  0
 27 29  1  0  0  0
 25 26  1  0  0  0
 32 33  1  0  0  0
 32 31  1  0  0  0
 29 30  1  0  0  0
 20 21  1  0  0  0
 20  2  1  0  0  0
  1  2  2  0  0  0
  2  3  1  0  0  0
  3  4  1  0  0  0
  4  5  1  0  0  0
  5  6  1  0  0  0
  6  7  1  0  0  0
  7  8  1  0  0  0
  8  9  1  0  0  0
  9 10  1  0  0  0
 10 11  2  0  0  0
 11 12  1  0  0  0
 12 13  1  0  0  0
 13 14  1  0  0  0
 14 15  1  0  0  0
 15 16  1  0  0  0
 16 17  1  0  0  0
 17 18  1  0  0  0
 18 19  1  0  0  0
M  CHG 1  28  -1
M  END
> <minimizedAffinity>
-7.54390

> <CNNscore>
0.6835131049

> <CNNaffinity>
6.6508307457

> <CNN_VS>
4.5459299088

> <CNNaffinity_variance>
0.4191778600

$$$$
/media/chris/experiments/cd1a-new-docking/inputs/ligands/4x6e_ligand.pdb


 37 36  0  0  0  0  0  0  0  0999 V2000
  -39.9922   60.5399   66.1060 O   0  0  0  0  0  0  0  0  0  0  0  0
  -40.9585   59.8276   65.9898 C   0  0  0  0  0  0  0  0  0  0  0  0
  -42.3826   60.2687   66.1344 C   0  0  0  0  0  0  0  0  0  0  0  0
  -43.1387   59.5082   67.2172 C   0  0  0  0  0  0  0  0  0  0  0  0
  -44.2565   58.6224   66.6944 C   0  0  0  0  0  0  0  0  0  0  0  0
  -45.6434   59.1872   66.9469 C   0  0  0  0  0  0  0  0  0  0  0  0
  -46.5873   58.9855   65.7739 C   0  0  0  0  0  0  0  0  0  0  0  0
  -47.8737   58.3049   66.1854 C   0  0  0  0  0  0  0  0  0  0  0  0
  -48.9220   58.2162   65.0950 C   0  0  0  0  0  0  0  0  0  0  0  0
  -50.1869   58.9156   65.4159 C   0  0  0  0  0  0  0  0  0  0  0  0
  -50.8608   59.7092   64.6090 C   0  0  0  0  0  0  0  0  0  0  0  0
  -50.5299   60.0480   63.1919 C   0  0  0  0  0  0  0  0  0  0  0  0
  -50.8898   58.8793   62.2732 C   0  0  0  0  0  0  0  0  0  0  0  0
  -49.9862   58.6997   61.0622 C   0  0  0  0  0  0  0  0  0  0  0  0
  -49.6164   57.2563   60.7426 C   0  0  0  0  0  0  0  0  0  0  0  0
  -49.0744   57.0646   59.3300 C   0  0  0  0  0  0  0  0  0  0  0  0
  -48.0412   55.9551   59.2158 C   0  0  0  0  0  0  0  0  0  0  0  0
  -47.1140   56.0495   58.0134 C   0  0  0  0  0  0  0  0  0  0  0  0
  -47.5913   57.0326   56.9891 C   0  0  0  0  0  0  0  0  0  0  0  0
  -40.9007   58.5247   65.6987 O   0  0  0  0  0  0  0  0  0  0  0  0
  -41.4754   58.0872   64.4478 C   0  0  0  0  0  0  0  0  0  0  0  0
  -40.5588   57.1302   63.7155 C   0  0  0  0  0  0  0  0  0  0  0  0
  -41.2275   56.5292   62.5982 O   0  0  0  0  0  0  0  0  0  0  0  0
  -41.4687   57.2167   61.9578 H   0  0  0  0  0  0  0  0  0  0  0  0
  -39.2862   57.7928   63.2424 C   0  0  0  0  0  0  0  0  0  0  0  0
  -39.5502   59.0521   62.5776 O   0  0  0  0  0  0  0  0  0  0  0  0
  -38.7465   59.8699   61.4546 P   0  0  0  0  0  0  0  0  0  0  0  0
  -39.7154   60.2024   60.3210 O   0  0  0  0  0  0  0  0  0  0  0  0
  -37.6722   59.0065   60.9174 O   0  0  0  0  0  0  0  0  0  0  0  0
  -38.0589   58.1876   60.5699 H   0  0  0  0  0  0  0  0  0  0  0  0
  -38.1324   61.2725   62.0553 O   0  0  0  0  0  0  0  0  0  0  0  0
  -38.0488   61.6339   63.4608 C   0  0  0  0  0  0  0  0  0  0  0  0
  -36.6068   61.8034   63.8707 C   0  0  0  0  0  0  0  0  0  0  0  0
  -36.1448   60.9979   65.0709 N   0  0  0  0  0  0  0  0  0  0  0  0
  -34.6531   60.8996   65.0930 C   0  0  0  0  0  0  0  0  0  0  0  0
  -36.7204   59.6232   64.9734 C   0  0  0  0  0  0  0  0  0  0  0  0
  -36.6072   61.6417   66.3468 C   0  0  0  0  0  0  0  0  0  0  0  0
 34 33  1  0  0  0
 34 35  1  0  0  0
 34 36  1  0  0  0
 34 37  1  0  0  0
 22 23  1  0  0  0
 22 25  1  0  0  0
 22 21  1  0  0  0
 23 24  1  0  0  0
 27 26  1  0  0  0
 27 28  2  0  0  0
 27 31  1  0  0  0
 27 29  1  0  0  0
 25 26  1  0  0  0
 32 33  1  0  0  0
 32 31  1  0  0  0
 29 30  1  0  0  0
 20 21  1  0  0  0
 20  2  1  0  0  0
  1  2  2  0  0  0
  2  3  1  0  0  0
  3  4  1  0  0  0
  4  5  1  0  0  0
  5  6  1  0  0  0
  6  7  1  0  0  0
  7  8  1  0  0  0
  8  9  1  0  0  0
  9 10  1  0  0  0
 10 11  2  0  0  0
 11 12  1  0  0  0
 12 13  1  0  0  0
 13 14  1  0  0  0
 14 15  1  0  0  0
 15 16  1  0  0  0
 16 17  1  0  0  0
 17 18  1  0  0  0
 18 19  1  0  0  0
M  CHG 1  28  -1
M  END
> <minimizedAffinity>
-7.89146

> <CNNscore>
0.6524167061

> <CNNaffinity>
6.8236951828

> <CNN_VS>
4.4518928528

> <CNNaffinity_variance>
0.4131929278

$$$$
/media/chris/experiments/cd1a-new-docking/inputs/ligands/4x6e_ligand.pdb


 37 36  0  0  0  0  0  0  0  0999 V2000
  -41.9526   57.4085   61.0952 O   0  0  0  0  0  0  0  0  0  0  0  0
  -41.8058   57.5996   62.2770 C   0  0  0  0  0  0  0  0  0  0  0  0
  -41.5965   56.5331   63.3078 C   0  0  0  0  0  0  0  0  0  0  0  0
  -41.9231   56.9950   64.7230 C   0  0  0  0  0  0  0  0  0  0  0  0
  -43.2312   56.4516   65.2716 C   0  0  0  0  0  0  0  0  0  0  0  0
  -43.8443   57.3272   66.3503 C   0  0  0  0  0  0  0  0  0  0  0  0
  -45.3565   57.4252   66.2447 C   0  0  0  0  0  0  0  0  0  0  0  0
  -45.7974   58.6391   65.4577 C   0  0  0  0  0  0  0  0  0  0  0  0
  -47.2544   59.0156   65.6344 C   0  0  0  0  0  0  0  0  0  0  0  0
  -48.2024   58.0740   64.9965 C   0  0  0  0  0  0  0  0  0  0  0  0
  -48.9669   58.3297   63.9548 C   0  0  0  0  0  0  0  0  0  0  0  0
  -49.0218   59.5964   63.1643 C   0  0  0  0  0  0  0  0  0  0  0  0
  -50.1598   59.5319   62.1444 C   0  0  0  0  0  0  0  0  0  0  0  0
  -50.9503   58.2318   62.1309 C   0  0  0  0  0  0  0  0  0  0  0  0
  -50.9039   57.4631   60.8159 C   0  0  0  0  0  0  0  0  0  0  0  0
  -50.2988   58.2604   59.6651 C   0  0  0  0  0  0  0  0  0  0  0  0
  -49.1569   57.5465   58.9594 C   0  0  0  0  0  0  0  0  0  0  0  0
  -48.5502   56.3772   59.7203 C   0  0  0  0  0  0  0  0  0  0  0  0
  -47.3096   55.8445   59.0717 C   0  0  0  0  0  0  0  0  0  0  0  0
  -41.7958   58.8081   62.8470 O   0  0  0  0  0  0  0  0  0  0  0  0
  -41.3120   59.9198   62.0618 C   0  0  0  0  0  0  0  0  0  0  0  0
  -40.3002   60.7466   62.8266 C   0  0  0  0  0  0  0  0  0  0  0  0
  -40.5426   60.6809   64.2386 O   0  0  0  0  0  0  0  0  0  0  0  0
  -40.4315   59.7668   64.5435 H   0  0  0  0  0  0  0  0  0  0  0  0
  -38.8762   60.3305   62.5414 C   0  0  0  0  0  0  0  0  0  0  0  0
  -37.9855   61.4705   62.4749 O   0  0  0  0  0  0  0  0  0  0  0  0
  -37.1182   62.2303   63.5914 P   0  0  0  0  0  0  0  0  0  0  0  0
  -35.7670   61.5267   63.7070 O   0  0  0  0  0  0  0  0  0  0  0  0
  -37.8181   62.1216   64.8901 O   0  0  0  0  0  0  0  0  0  0  0  0
  -37.9563   61.1859   65.1055 H   0  0  0  0  0  0  0  0  0  0  0  0
  -36.8634   63.8042   63.1876 O   0  0  0  0  0  0  0  0  0  0  0  0
  -35.9668   64.7246   63.8674 C   0  0  0  0  0  0  0  0  0  0  0  0
  -34.6360   64.7753   63.1586 C   0  0  0  0  0  0  0  0  0  0  0  0
  -33.4023   64.5773   64.0197 N   0  0  0  0  0  0  0  0  0  0  0  0
  -32.6039   63.4116   63.5307 C   0  0  0  0  0  0  0  0  0  0  0  0
  -33.8374   64.3129   65.4237 C   0  0  0  0  0  0  0  0  0  0  0  0
  -32.5367   65.8046   63.9897 C   0  0  0  0  0  0  0  0  0  0  0  0
 34 33  1  0  0  0
 34 35  1  0  0  0
 34 36  1  0  0  0
 34 37  1  0  0  0
 22 23  1  0  0  0
 22 25  1  0  0  0
 22 21  1  0  0  0
 23 24  1  0  0  0
 27 26  1  0  0  0
 27 28  2  0  0  0
 27 31  1  0  0  0
 27 29  1  0  0  0
 25 26  1  0  0  0
 32 33  1  0  0  0
 32 31  1  0  0  0
 29 30  1  0  0  0
 20 21  1  0  0  0
 20  2  1  0  0  0
  1  2  2  0  0  0
  2  3  1  0  0  0
  3  4  1  0  0  0
  4  5  1  0  0  0
  5  6  1  0  0  0
  6  7  1  0  0  0
  7  8  1  0  0  0
  8  9  1  0  0  0
  9 10  1  0  0  0
 10 11  2  0  0  0
 11 12  1  0  0  0
 12 13  1  0  0  0
 13 14  1  0  0  0
 14 15  1  0  0  0
 15 16  1  0  0  0
 16 17  1  0  0  0
 17 18  1  0  0  0
 18 19  1  0  0  0
M  CHG 1  28  -1
M  END
> <minimizedAffinity>
-7.56884

> <CNNscore>
0.6466773748

> <CNNaffinity>
6.3623218536

> <CNN_VS>
4.1143693924

> <CNNaffinity_variance>
0.2311384976

$$$$
