/media/chris/experiments/cd1a-new-docking/inputs/ligands/4x6d_1_ligand.pdb


 21 20  0  0  0  0  0  0  0  0999 V2000
  -47.7977   60.5454   65.4896 C   0  0  0  0  0  0  0  0  0  0  0  0
  -48.4521   61.3179   64.3712 C   0  0  0  0  0  0  0  0  0  0  0  0
  -49.1738   60.6014   63.3107 C   0  0  0  0  0  0  0  0  0  0  0  0
  -50.6118   60.1807   63.5172 C   0  0  0  0  0  0  0  0  0  0  0  0
  -50.9407   58.9732   62.6402 C   0  0  0  0  0  0  0  0  0  0  0  0
  -50.0764   58.8883   61.3850 C   0  0  0  0  0  0  0  0  0  0  0  0
  -50.0834   57.4775   60.7902 C   0  0  0  0  0  0  0  0  0  0  0  0
  -49.3905   57.3480   59.4283 C   0  0  0  0  0  0  0  0  0  0  0  0
  -48.0987   58.1729   59.3551 C   0  0  0  0  0  0  0  0  0  0  0  0
  -47.1045   57.6227   58.3293 C   0  0  0  0  0  0  0  0  0  0  0  0
  -47.7686   57.1499   57.0304 C   0  0  0  0  0  0  0  0  0  0  0  0
  -46.3127   60.4559   65.1766 C   0  0  0  0  0  0  0  0  0  0  0  0
  -45.8352   59.0161   65.1130 C   0  0  0  0  0  0  0  0  0  0  0  0
  -44.4704   58.8594   65.7769 C   0  0  0  0  0  0  0  0  0  0  0  0
  -43.6346   60.1132   65.5605 C   0  0  0  0  0  0  0  0  0  0  0  0
  -42.5260   60.2137   66.5964 C   0  0  0  0  0  0  0  0  0  0  0  0
  -41.1860   59.7793   66.0116 C   0  0  0  0  0  0  0  0  0  0  0  0
  -40.2333   60.9587   65.9871 C   0  0  0  0  0  0  0  0  0  0  0  0
  -40.6705   62.1265   66.1504 O   0  0  0  0  0  0  0  0  0  0  0  0
  -39.0022   60.7789   65.7993 O   0  0  0  0  0  0  0  0  0  0  0  0
  -38.6688   59.9119   65.6768 H   0  0  0  0  0  0  0  0  0  0  0  0
 18 19  2  0  0  0
 18 17  1  0  0  0
 18 20  1  0  0  0
 17 16  1  0  0  0
 20 21  1  0  0  0
 16 15  1  0  0  0
 15 14  1  0  0  0
 14 13  1  0  0  0
 13 12  1  0  0  0
 12  1  1  0  0  0
  1  2  1  0  0  0
  2  3  1  0  0  0
  3  4  1  0  0  0
  4  5  1  0  0  0
  5  6  1  0  0  0
  6  7  1  0  0  0
  7  8  1  0  0  0
  8  9  1  0  0  0
  9 10  1  0  0  0
 10 11  1  0  0  0
M  END
> <minimizedAffinity>
-7.12597

> <CNNscore>
0.9354810715

> <CNNaffinity>
6.9060301781

> <CNN_VS>
6.4604606628

> <CNNaffinity_variance>
0.8976241946

$$$$
/media/chris/experiments/cd1a-new-docking/inputs/ligands/4x6d_1_ligand.pdb


 21 20  0  0  0  0  0  0  0  0999 V2000
  -47.4677   58.5239   64.4917 C   0  0  0  0  0  0  0  0  0  0  0  0
  -48.9650   58.3749   64.5993 C   0  0  0  0  0  0  0  0  0  0  0  0
  -49.7943   59.5392   64.9396 C   0  0  0  0  0  0  0  0  0  0  0  0
  -50.9836   59.9055   64.0801 C   0  0  0  0  0  0  0  0  0  0  0  0
  -50.7072   59.5565   62.6182 C   0  0  0  0  0  0  0  0  0  0  0  0
  -49.7304   60.5168   61.9449 C   0  0  0  0  0  0  0  0  0  0  0  0
  -49.1690   59.9313   60.6464 C   0  0  0  0  0  0  0  0  0  0  0  0
  -49.3005   58.4092   60.5150 C   0  0  0  0  0  0  0  0  0  0  0  0
  -48.0357   57.7670   59.9300 C   0  0  0  0  0  0  0  0  0  0  0  0
  -48.1272   57.5554   58.4165 C   0  0  0  0  0  0  0  0  0  0  0  0
  -46.8329   57.9071   57.6731 C   0  0  0  0  0  0  0  0  0  0  0  0
  -47.0300   59.5254   65.5483 C   0  0  0  0  0  0  0  0  0  0  0  0
  -45.7053   60.1771   65.1939 C   0  0  0  0  0  0  0  0  0  0  0  0
  -44.5654   59.5924   66.0225 C   0  0  0  0  0  0  0  0  0  0  0  0
  -43.2388   60.2053   65.5961 C   0  0  0  0  0  0  0  0  0  0  0  0
  -42.1416   59.8782   66.5967 C   0  0  0  0  0  0  0  0  0  0  0  0
  -40.7969   59.6996   65.8994 C   0  0  0  0  0  0  0  0  0  0  0  0
  -39.9755   60.9661   66.0425 C   0  0  0  0  0  0  0  0  0  0  0  0
  -38.7202   60.9026   66.0853 O   0  0  0  0  0  0  0  0  0  0  0  0
  -40.5421   62.0866   66.1238 O   0  0  0  0  0  0  0  0  0  0  0  0
  -41.4769   62.1422   66.0928 H   0  0  0  0  0  0  0  0  0  0  0  0
 18 19  2  0  0  0
 18 17  1  0  0  0
 18 20  1  0  0  0
 17 16  1  0  0  0
 20 21  1  0  0  0
 16 15  1  0  0  0
 15 14  1  0  0  0
 14 13  1  0  0  0
 13 12  1  0  0  0
 12  1  1  0  0  0
  1  2  1  0  0  0
  2  3  1  0  0  0
  3  4  1  0  0  0
  4  5  1  0  0  0
  5  6  1  0  0  0
  6  7  1  0  0  0
  7  8  1  0  0  0
  8  9  1  0  0  0
  9 10  1  0  0  0
 10 11  1  0  0  0
M  END
> <minimizedAffinity>
-7.13875

> <CNNscore>
0.9123861790

> <CNNaffinity>
6.7865562439

> <CNN_VS>
6.1919603348

> <CNNaffinity_variance>
0.4993154109

$$$$
/media/chris/experiments/cd1a-new-docking/inputs/ligands/4x6d_1_ligand.pdb


 21 20  0  0  0  0  0  0  0  0999 V2000
  -45.0453   58.1029   64.8552 C   0  0  0  0  0  0  0  0  0  0  0  0
  -46.3841   57.6439   65.3774 C   0  0  0  0  0  0  0  0  0  0  0  0
  -47.4301   58.6309   65.6788 C   0  0  0  0  0  0  0  0  0  0  0  0
  -48.1834   59.3102   64.5570 C   0  0  0  0  0  0  0  0  0  0  0  0
  -48.8519   58.2678   63.6616 C   0  0  0  0  0  0  0  0  0  0  0  0
  -50.3360   58.5378   63.4289 C   0  0  0  0  0  0  0  0  0  0  0  0
  -50.7169   58.3620   61.9565 C   0  0  0  0  0  0  0  0  0  0  0  0
  -49.6043   57.7972   61.0652 C   0  0  0  0  0  0  0  0  0  0  0  0
  -50.0549   57.6386   59.6070 C   0  0  0  0  0  0  0  0  0  0  0  0
  -48.8947   57.3126   58.6629 C   0  0  0  0  0  0  0  0  0  0  0  0
  -47.6757   58.2220   58.8592 C   0  0  0  0  0  0  0  0  0  0  0  0
  -44.0990   56.9146   64.9137 C   0  0  0  0  0  0  0  0  0  0  0  0
  -42.8513   57.2259   65.7208 C   0  0  0  0  0  0  0  0  0  0  0  0
  -42.9680   58.5802   66.4136 C   0  0  0  0  0  0  0  0  0  0  0  0
  -41.6069   59.2596   66.4702 C   0  0  0  0  0  0  0  0  0  0  0  0
  -40.9736   59.3254   65.0894 C   0  0  0  0  0  0  0  0  0  0  0  0
  -39.4867   58.9910   65.1498 C   0  0  0  0  0  0  0  0  0  0  0  0
  -38.6743   60.2712   65.1307 C   0  0  0  0  0  0  0  0  0  0  0  0
  -38.4773   60.9094   66.1963 O   0  0  0  0  0  0  0  0  0  0  0  0
  -38.1965   60.7059   64.0510 O   0  0  0  0  0  0  0  0  0  0  0  0
  -38.3389   60.2362   63.2530 H   0  0  0  0  0  0  0  0  0  0  0  0
 18 19  2  0  0  0
 18 17  1  0  0  0
 18 20  1  0  0  0
 17 16  1  0  0  0
 20 21  1  0  0  0
 16 15  1  0  0  0
 15 14  1  0  0  0
 14 13  1  0  0  0
 13 12  1  0  0  0
 12  1  1  0  0  0
  1  2  1  0  0  0
  2  3  1  0  0  0
  3  4  1  0  0  0
  4  5  1  0  0  0
  5  6  1  0  0  0
  6  7  1  0  0  0
  7  8  1  0  0  0
  8  9  1  0  0  0
  9 10  1  0  0  0
 10 11  1  0  0  0
M  END
> <minimizedAffinity>
-6.66167

> <CNNscore>
0.9036482573

> <CNNaffinity>
6.8735213280

> <CNN_VS>
6.2112455368

> <CNNaffinity_variance>
0.6253293753

$$$$
/media/chris/experiments/cd1a-new-docking/inputs/ligands/4x6d_1_ligand.pdb


 21 20  0  0  0  0  0  0  0  0999 V2000
  -48.4738   58.9346   65.7211 C   0  0  0  0  0  0  0  0  0  0  0  0
  -49.9452   59.2316   65.5708 C   0  0  0  0  0  0  0  0  0  0  0  0
  -50.3886   60.2909   64.6542 C   0  0  0  0  0  0  0  0  0  0  0  0
  -51.1771   59.9430   63.4113 C   0  0  0  0  0  0  0  0  0  0  0  0
  -50.2340   59.5001   62.2934 C   0  0  0  0  0  0  0  0  0  0  0  0
  -50.2052   57.9871   62.0950 C   0  0  0  0  0  0  0  0  0  0  0  0
  -50.6812   57.5930   60.6942 C   0  0  0  0  0  0  0  0  0  0  0  0
  -49.6630   57.8377   59.5741 C   0  0  0  0  0  0  0  0  0  0  0  0
  -48.7412   56.6305   59.3557 C   0  0  0  0  0  0  0  0  0  0  0  0
  -48.0179   56.6766   58.0072 C   0  0  0  0  0  0  0  0  0  0  0  0
  -47.1888   57.9506   57.8040 C   0  0  0  0  0  0  0  0  0  0  0  0
  -47.7103   60.1846   65.3141 C   0  0  0  0  0  0  0  0  0  0  0  0
  -46.2210   59.9193   65.1853 C   0  0  0  0  0  0  0  0  0  0  0  0
  -45.9036   58.4439   65.4093 C   0  0  0  0  0  0  0  0  0  0  0  0
  -44.8073   57.9922   64.4545 C   0  0  0  0  0  0  0  0  0  0  0  0
  -43.8389   57.0458   65.1464 C   0  0  0  0  0  0  0  0  0  0  0  0
  -43.1217   57.7396   66.2999 C   0  0  0  0  0  0  0  0  0  0  0  0
  -42.1789   58.7944   65.7543 C   0  0  0  0  0  0  0  0  0  0  0  0
  -42.4932   60.0109   65.8097 O   0  0  0  0  0  0  0  0  0  0  0  0
  -41.0803   58.4613   65.2394 O   0  0  0  0  0  0  0  0  0  0  0  0
  -40.8391   57.5571   65.1944 H   0  0  0  0  0  0  0  0  0  0  0  0
 18 19  2  0  0  0
 18 17  1  0  0  0
 18 20  1  0  0  0
 17 16  1  0  0  0
 20 21  1  0  0  0
 16 15  1  0  0  0
 15 14  1  0  0  0
 14 13  1  0  0  0
 13 12  1  0  0  0
 12  1  1  0  0  0
  1  2  1  0  0  0
  2  3  1  0  0  0
  3  4  1  0  0  0
  4  5  1  0  0  0
  5  6  1  0  0  0
  6  7  1  0  0  0
  7  8  1  0  0  0
  8  9  1  0  0  0
  9 10  1  0  0  0
 10 11  1  0  0  0
M  END
> <minimizedAffinity>
-6.82763

> <CNNscore>
0.8550229073

> <CNNaffinity>
6.7800078392

> <CNN_VS>
5.7970619202

> <CNNaffinity_variance>
0.7480589747

$$$$
/media/chris/experiments/cd1a-new-docking/inputs/ligands/4x6d_1_ligand.pdb


 21 20  0  0  0  0  0  0  0  0999 V2000
  -45.3592   59.0805   65.1805 C   0  0  0  0  0  0  0  0  0  0  0  0
  -46.7143   59.7023   65.4100 C   0  0  0  0  0  0  0  0  0  0  0  0
  -47.9244   59.0172   64.9353 C   0  0  0  0  0  0  0  0  0  0  0  0
  -48.7280   59.5943   63.7914 C   0  0  0  0  0  0  0  0  0  0  0  0
  -50.2120   59.2796   63.9760 C   0  0  0  0  0  0  0  0  0  0  0  0
  -50.8976   58.8356   62.6866 C   0  0  0  0  0  0  0  0  0  0  0  0
  -49.9935   57.9241   61.8525 C   0  0  0  0  0  0  0  0  0  0  0  0
  -49.8946   58.2965   60.3683 C   0  0  0  0  0  0  0  0  0  0  0  0
  -48.4736   58.7170   59.9702 C   0  0  0  0  0  0  0  0  0  0  0  0
  -47.7246   57.6197   59.2096 C   0  0  0  0  0  0  0  0  0  0  0  0
  -47.0781   58.1126   57.9093 C   0  0  0  0  0  0  0  0  0  0  0  0
  -44.3414   60.2083   65.1238 C   0  0  0  0  0  0  0  0  0  0  0  0
  -43.1334   59.8365   64.2826 C   0  0  0  0  0  0  0  0  0  0  0  0
  -42.5716   61.0558   63.5577 C   0  0  0  0  0  0  0  0  0  0  0  0
  -41.0523   61.0692   63.6534 C   0  0  0  0  0  0  0  0  0  0  0  0
  -40.5530   59.9413   64.5425 C   0  0  0  0  0  0  0  0  0  0  0  0
  -39.3148   59.2789   63.9472 C   0  0  0  0  0  0  0  0  0  0  0  0
  -38.1441   59.4375   64.8978 C   0  0  0  0  0  0  0  0  0  0  0  0
  -37.6750   60.5798   65.1360 O   0  0  0  0  0  0  0  0  0  0  0  0
  -37.6317   58.4299   65.4504 O   0  0  0  0  0  0  0  0  0  0  0  0
  -37.9755   57.5755   65.2779 H   0  0  0  0  0  0  0  0  0  0  0  0
 18 19  2  0  0  0
 18 17  1  0  0  0
 18 20  1  0  0  0
 17 16  1  0  0  0
 20 21  1  0  0  0
 16 15  1  0  0  0
 15 14  1  0  0  0
 14 13  1  0  0  0
 13 12  1  0  0  0
 12  1  1  0  0  0
  1  2  1  0  0  0
  2  3  1  0  0  0
  3  4  1  0  0  0
  4  5  1  0  0  0
  5  6  1  0  0  0
  6  7  1  0  0  0
  7  8  1  0  0  0
  8  9  1  0  0  0
  9 10  1  0  0  0
 10 11  1  0  0  0
M  END
> <minimizedAffinity>
-6.48348

> <CNNscore>
0.7693809271

> <CNNaffinity>
6.7673821449

> <CNN_VS>
5.2066946030

> <CNNaffinity_variance>
1.2382775545

$$$$
/media/chris/experiments/cd1a-new-docking/inputs/ligands/4x6d_1_ligand.pdb


 21 20  0  0  0  0  0  0  0  0999 V2000
  -45.8301   58.7242   66.3993 C   0  0  0  0  0  0  0  0  0  0  0  0
  -46.8184   58.4167   65.3018 C   0  0  0  0  0  0  0  0  0  0  0  0
  -48.2588   58.4165   65.5923 C   0  0  0  0  0  0  0  0  0  0  0  0
  -48.9769   59.7142   65.8886 C   0  0  0  0  0  0  0  0  0  0  0  0
  -50.4292   59.6339   65.4199 C   0  0  0  0  0  0  0  0  0  0  0  0
  -50.7465   60.5954   64.2777 C   0  0  0  0  0  0  0  0  0  0  0  0
  -51.1761   59.8465   63.0133 C   0  0  0  0  0  0  0  0  0  0  0  0
  -50.4420   58.5230   62.7664 C   0  0  0  0  0  0  0  0  0  0  0  0
  -49.0917   58.7314   62.0681 C   0  0  0  0  0  0  0  0  0  0  0  0
  -48.9997   57.9949   60.7292 C   0  0  0  0  0  0  0  0  0  0  0  0
  -50.3619   57.5466   60.1859 C   0  0  0  0  0  0  0  0  0  0  0  0
  -44.9497   57.4980   66.5797 C   0  0  0  0  0  0  0  0  0  0  0  0
  -43.4980   57.7916   66.2461 C   0  0  0  0  0  0  0  0  0  0  0  0
  -43.1845   59.2755   66.4124 C   0  0  0  0  0  0  0  0  0  0  0  0
  -42.1772   59.7200   65.3611 C   0  0  0  0  0  0  0  0  0  0  0  0
  -42.8811   60.2821   64.1361 C   0  0  0  0  0  0  0  0  0  0  0  0
  -41.8749   60.7315   63.0816 C   0  0  0  0  0  0  0  0  0  0  0  0
  -42.0614   62.2087   62.7948 C   0  0  0  0  0  0  0  0  0  0  0  0
  -42.5920   62.5801   61.7168 O   0  0  0  0  0  0  0  0  0  0  0  0
  -41.6836   63.0718   63.6287 O   0  0  0  0  0  0  0  0  0  0  0  0
  -41.2873   62.8030   64.4341 H   0  0  0  0  0  0  0  0  0  0  0  0
 18 19  2  0  0  0
 18 17  1  0  0  0
 18 20  1  0  0  0
 17 16  1  0  0  0
 20 21  1  0  0  0
 16 15  1  0  0  0
 15 14  1  0  0  0
 14 13  1  0  0  0
 13 12  1  0  0  0
 12  1  1  0  0  0
  1  2  1  0  0  0
  2  3  1  0  0  0
  3  4  1  0  0  0
  4  5  1  0  0  0
  5  6  1  0  0  0
  6  7  1  0  0  0
  7  8  1  0  0  0
  8  9  1  0  0  0
  9 10  1  0  0  0
 10 11  1  0  0  0
M  END
> <minimizedAffinity>
-6.41406

> <CNNscore>
0.7047353983

> <CNNaffinity>
6.4209632874

> <CNN_VS>
4.5250802040

> <CNNaffinity_variance>
0.8276339769

$$$$
/media/chris/experiments/cd1a-new-docking/inputs/ligands/4x6d_1_ligand.pdb


 21 20  0  0  0  0  0  0  0  0999 V2000
  -48.6355   58.3244   63.3381 C   0  0  0  0  0  0  0  0  0  0  0  0
  -48.6612   58.1596   64.8375 C   0  0  0  0  0  0  0  0  0  0  0  0
  -47.6137   58.7796   65.6604 C   0  0  0  0  0  0  0  0  0  0  0  0
  -46.7101   57.9218   66.5178 C   0  0  0  0  0  0  0  0  0  0  0  0
  -45.8519   57.0137   65.6379 C   0  0  0  0  0  0  0  0  0  0  0  0
  -45.0671   57.7752   64.5731 C   0  0  0  0  0  0  0  0  0  0  0  0
  -43.6156   58.0077   65.0011 C   0  0  0  0  0  0  0  0  0  0  0  0
  -43.3565   59.3461   65.7034 C   0  0  0  0  0  0  0  0  0  0  0  0
  -43.5195   60.5397   64.7531 C   0  0  0  0  0  0  0  0  0  0  0  0
  -42.4464   60.5763   63.6619 C   0  0  0  0  0  0  0  0  0  0  0  0
  -42.5065   61.8369   62.7906 C   0  0  0  0  0  0  0  0  0  0  0  0
  -50.0760   58.3210   62.8523 C   0  0  0  0  0  0  0  0  0  0  0  0
  -50.1673   58.5585   61.3555 C   0  0  0  0  0  0  0  0  0  0  0  0
  -50.1729   57.2396   60.5886 C   0  0  0  0  0  0  0  0  0  0  0  0
  -49.8328   57.4824   59.1247 C   0  0  0  0  0  0  0  0  0  0  0  0
  -48.3302   57.4252   58.8985 C   0  0  0  0  0  0  0  0  0  0  0  0
  -47.8972   56.0399   58.4294 C   0  0  0  0  0  0  0  0  0  0  0  0
  -47.7124   56.0452   56.9244 C   0  0  0  0  0  0  0  0  0  0  0  0
  -47.8988   57.1026   56.2695 O   0  0  0  0  0  0  0  0  0  0  0  0
  -47.3766   54.9937   56.3206 O   0  0  0  0  0  0  0  0  0  0  0  0
  -47.2359   54.2019   56.8014 H   0  0  0  0  0  0  0  0  0  0  0  0
 18 19  2  0  0  0
 18 17  1  0  0  0
 18 20  1  0  0  0
 17 16  1  0  0  0
 20 21  1  0  0  0
 16 15  1  0  0  0
 15 14  1  0  0  0
 14 13  1  0  0  0
 13 12  1  0  0  0
 12  1  1  0  0  0
  1  2  1  0  0  0
  2  3  1  0  0  0
  3  4  1  0  0  0
  4  5  1  0  0  0
  5  6  1  0  0  0
  6  7  1  0  0  0
  7  8  1  0  0  0
  8  9  1  0  0  0
  9 10  1  0  0  0
 10 11  1  0  0  0
M  END
> <minimizedAffinity>
-6.99905

> <CNNscore>
0.7040440440

> <CNNaffinity>
6.7669653893

> <CNN_VS>
4.7642416954

> <CNNaffinity_variance>
0.5007163286

$$$$
/media/chris/experiments/cd1a-new-docking/inputs/ligands/4x6d_1_ligand.pdb


 21 20  0  0  0  0  0  0  0  0999 V2000
  -46.1402   60.5067   65.1437 C   0  0  0  0  0  0  0  0  0  0  0  0
  -47.3896   60.1539   65.9120 C   0  0  0  0  0  0  0  0  0  0  0  0
  -48.5678   59.6417   65.1989 C   0  0  0  0  0  0  0  0  0  0  0  0
  -48.5373   59.4771   63.6957 C   0  0  0  0  0  0  0  0  0  0  0  0
  -49.2367   60.6561   63.0203 C   0  0  0  0  0  0  0  0  0  0  0  0
  -49.6268   60.3743   61.5718 C   0  0  0  0  0  0  0  0  0  0  0  0
  -49.3052   58.9319   61.1718 C   0  0  0  0  0  0  0  0  0  0  0  0
  -48.4477   58.7885   59.9086 C   0  0  0  0  0  0  0  0  0  0  0  0
  -47.8048   57.3995   59.7997 C   0  0  0  0  0  0  0  0  0  0  0  0
  -47.5882   56.9615   58.3489 C   0  0  0  0  0  0  0  0  0  0  0  0
  -46.8922   58.0239   57.4895 C   0  0  0  0  0  0  0  0  0  0  0  0
  -44.9942   59.7052   65.7400 C   0  0  0  0  0  0  0  0  0  0  0  0
  -43.8017   59.6424   64.8025 C   0  0  0  0  0  0  0  0  0  0  0  0
  -43.4470   61.0274   64.2699 C   0  0  0  0  0  0  0  0  0  0  0  0
  -42.3519   60.9205   63.2179 C   0  0  0  0  0  0  0  0  0  0  0  0
  -41.0906   61.6390   63.6704 C   0  0  0  0  0  0  0  0  0  0  0  0
  -39.9800   60.6464   63.9986 C   0  0  0  0  0  0  0  0  0  0  0  0
  -39.8350   60.5216   65.5028 C   0  0  0  0  0  0  0  0  0  0  0  0
  -39.0162   61.2495   66.1203 O   0  0  0  0  0  0  0  0  0  0  0  0
  -40.5274   59.6880   66.1421 O   0  0  0  0  0  0  0  0  0  0  0  0
  -41.1395   59.1420   65.6892 H   0  0  0  0  0  0  0  0  0  0  0  0
 18 19  2  0  0  0
 18 17  1  0  0  0
 18 20  1  0  0  0
 17 16  1  0  0  0
 20 21  1  0  0  0
 16 15  1  0  0  0
 15 14  1  0  0  0
 14 13  1  0  0  0
 13 12  1  0  0  0
 12  1  1  0  0  0
  1  2  1  0  0  0
  2  3  1  0  0  0
  3  4  1  0  0  0
  4  5  1  0  0  0
  5  6  1  0  0  0
  6  7  1  0  0  0
  7  8  1  0  0  0
  8  9  1  0  0  0
  9 10  1  0  0  0
 10 11  1  0  0  0
M  END
> <minimizedAffinity>
-6.66959

> <CNNscore>
0.6992419958

> <CNNaffinity>
6.3956327438

> <CNN_VS>
4.4720950127

> <CNNaffinity_variance>
0.2060171813

$$$$
/media/chris/experiments/cd1a-new-docking/inputs/ligands/4x6d_1_ligand.pdb


 21 20  0  0  0  0  0  0  0  0999 V2000
  -46.5908   59.5885   65.0470 C   0  0  0  0  0  0  0  0  0  0  0  0
  -47.7445   59.2401   65.9543 C   0  0  0  0  0  0  0  0  0  0  0  0
  -48.6258   58.1133   65.6185 C   0  0  0  0  0  0  0  0  0  0  0  0
  -50.0660   58.3616   65.2290 C   0  0  0  0  0  0  0  0  0  0  0  0
  -50.4689   59.7939   65.5780 C   0  0  0  0  0  0  0  0  0  0  0  0
  -50.8972   60.6113   64.3623 C   0  0  0  0  0  0  0  0  0  0  0  0
  -50.9346   59.7562   63.0928 C   0  0  0  0  0  0  0  0  0  0  0  0
  -49.8465   60.0824   62.0628 C   0  0  0  0  0  0  0  0  0  0  0  0
  -49.0473   58.8389   61.6512 C   0  0  0  0  0  0  0  0  0  0  0  0
  -49.9401   57.7084   61.1330 C   0  0  0  0  0  0  0  0  0  0  0  0
  -50.1564   57.7502   59.6154 C   0  0  0  0  0  0  0  0  0  0  0  0
  -45.8132   58.3092   64.7828 C   0  0  0  0  0  0  0  0  0  0  0  0
  -44.3136   58.5442   64.8111 C   0  0  0  0  0  0  0  0  0  0  0  0
  -43.9767   59.8668   65.4931 C   0  0  0  0  0  0  0  0  0  0  0  0
  -43.5454   59.6202   66.9321 C   0  0  0  0  0  0  0  0  0  0  0  0
  -42.2309   60.3224   67.2341 C   0  0  0  0  0  0  0  0  0  0  0  0
  -41.1165   59.8190   66.3223 C   0  0  0  0  0  0  0  0  0  0  0  0
  -40.3009   60.9931   65.8170 C   0  0  0  0  0  0  0  0  0  0  0  0
  -40.6091   62.1658   66.1509 O   0  0  0  0  0  0  0  0  0  0  0  0
  -39.3151   60.8039   65.0583 O   0  0  0  0  0  0  0  0  0  0  0  0
  -39.0792   59.9333   64.8051 H   0  0  0  0  0  0  0  0  0  0  0  0
 18 19  2  0  0  0
 18 17  1  0  0  0
 18 20  1  0  0  0
 17 16  1  0  0  0
 20 21  1  0  0  0
 16 15  1  0  0  0
 15 14  1  0  0  0
 14 13  1  0  0  0
 13 12  1  0  0  0
 12  1  1  0  0  0
  1  2  1  0  0  0
  2  3  1  0  0  0
  3  4  1  0  0  0
  4  5  1  0  0  0
  5  6  1  0  0  0
  6  7  1  0  0  0
  7  8  1  0  0  0
  8  9  1  0  0  0
  9 10  1  0  0  0
 10 11  1  0  0  0
M  END
> <minimizedAffinity>
-6.86779

> <CNNscore>
0.6984627247

> <CNNaffinity>
6.3942971230

> <CNN_VS>
4.4661784172

> <CNNaffinity_variance>
0.3831098378

$$$$
