/media/chris/experiments/cd1a-new-docking/inputs/ligands/4x6d_1_ligand.pdb


 21 20  0  0  0  0  0  0  0  0999 V2000
  -47.6118   57.7691   65.4660 C   0  0  0  0  0  0  0  0  0  0  0  0
  -48.3284   58.3329   64.2642 C   0  0  0  0  0  0  0  0  0  0  0  0
  -49.7701   58.6081   64.3336 C   0  0  0  0  0  0  0  0  0  0  0  0
  -50.6069   58.6130   63.0738 C   0  0  0  0  0  0  0  0  0  0  0  0
  -49.7162   58.4231   61.8466 C   0  0  0  0  0  0  0  0  0  0  0  0
  -50.3942   57.6376   60.7272 C   0  0  0  0  0  0  0  0  0  0  0  0
  -49.3694   56.9652   59.8098 C   0  0  0  0  0  0  0  0  0  0  0  0
  -48.3532   57.9186   59.1693 C   0  0  0  0  0  0  0  0  0  0  0  0
  -47.1006   57.1829   58.6753 C   0  0  0  0  0  0  0  0  0  0  0  0
  -47.3953   55.7474   58.2324 C   0  0  0  0  0  0  0  0  0  0  0  0
  -47.6202   55.6102   56.7217 C   0  0  0  0  0  0  0  0  0  0  0  0
  -46.9692   58.9328   66.2036 C   0  0  0  0  0  0  0  0  0  0  0  0
  -46.3573   59.9393   65.2457 C   0  0  0  0  0  0  0  0  0  0  0  0
  -44.8333   59.8809   65.2860 C   0  0  0  0  0  0  0  0  0  0  0  0
  -44.3616   59.4306   66.6615 C   0  0  0  0  0  0  0  0  0  0  0  0
  -42.8511   59.2579   66.6892 C   0  0  0  0  0  0  0  0  0  0  0  0
  -42.1586   60.5437   67.1288 C   0  0  0  0  0  0  0  0  0  0  0  0
  -41.2524   61.0407   66.0192 C   0  0  0  0  0  0  0  0  0  0  0  0
  -41.1606   60.3962   64.9432 O   0  0  0  0  0  0  0  0  0  0  0  0
  -40.5837   62.0960   66.1680 O   0  0  0  0  0  0  0  0  0  0  0  0
  -40.6466   62.5818   66.9668 H   0  0  0  0  0  0  0  0  0  0  0  0
 18 19  2  0  0  0
 18 17  1  0  0  0
 18 20  1  0  0  0
 17 16  1  0  0  0
 20 21  1  0  0  0
 16 15  1  0  0  0
 15 14  1  0  0  0
 14 13  1  0  0  0
 13 12  1  0  0  0
 12  1  1  0  0  0
  1  2  1  0  0  0
  2  3  1  0  0  0
  3  4  1  0  0  0
  4  5  1  0  0  0
  5  6  1  0  0  0
  6  7  1  0  0  0
  7  8  1  0  0  0
  8  9  1  0  0  0
  9 10  1  0  0  0
 10 11  1  0  0  0
M  END
> <minimizedAffinity>
-7.04398

> <CNNscore>
0.9466049075

> <CNNaffinity>
7.0254640579

> <CNN_VS>
6.6503386497

> <CNNaffinity_variance>
0.7066360712

$$$$
/media/chris/experiments/cd1a-new-docking/inputs/ligands/4x6d_1_ligand.pdb


 21 20  0  0  0  0  0  0  0  0999 V2000
  -47.7362   59.9273   66.0068 C   0  0  0  0  0  0  0  0  0  0  0  0
  -48.7109   58.8112   65.7236 C   0  0  0  0  0  0  0  0  0  0  0  0
  -50.1427   59.1083   65.5799 C   0  0  0  0  0  0  0  0  0  0  0  0
  -50.5969   60.2906   64.7532 C   0  0  0  0  0  0  0  0  0  0  0  0
  -50.2295   60.0812   63.2846 C   0  0  0  0  0  0  0  0  0  0  0  0
  -50.7794   58.7798   62.7068 C   0  0  0  0  0  0  0  0  0  0  0  0
  -49.6830   57.9595   62.0220 C   0  0  0  0  0  0  0  0  0  0  0  0
  -49.6994   58.0124   60.4895 C   0  0  0  0  0  0  0  0  0  0  0  0
  -48.3814   58.5477   59.9145 C   0  0  0  0  0  0  0  0  0  0  0  0
  -47.6000   57.4832   59.1398 C   0  0  0  0  0  0  0  0  0  0  0  0
  -47.2407   57.9106   57.7116 C   0  0  0  0  0  0  0  0  0  0  0  0
  -46.3395   59.3986   65.7224 C   0  0  0  0  0  0  0  0  0  0  0  0
  -45.4429   60.4670   65.1226 C   0  0  0  0  0  0  0  0  0  0  0  0
  -43.9699   60.1367   65.3437 C   0  0  0  0  0  0  0  0  0  0  0  0
  -43.7358   59.7253   66.7905 C   0  0  0  0  0  0  0  0  0  0  0  0
  -42.3487   60.1392   67.2562 C   0  0  0  0  0  0  0  0  0  0  0  0
  -41.3151   59.9367   66.1530 C   0  0  0  0  0  0  0  0  0  0  0  0
  -40.4307   61.1641   66.0504 C   0  0  0  0  0  0  0  0  0  0  0  0
  -39.1790   61.0432   66.0692 O   0  0  0  0  0  0  0  0  0  0  0  0
  -40.9409   62.3098   65.9507 O   0  0  0  0  0  0  0  0  0  0  0  0
  -41.8726   62.4081   65.9359 H   0  0  0  0  0  0  0  0  0  0  0  0
 18 19  2  0  0  0
 18 17  1  0  0  0
 18 20  1  0  0  0
 17 16  1  0  0  0
 20 21  1  0  0  0
 16 15  1  0  0  0
 15 14  1  0  0  0
 14 13  1  0  0  0
 13 12  1  0  0  0
 12  1  1  0  0  0
  1  2  1  0  0  0
  2  3  1  0  0  0
  3  4  1  0  0  0
  4  5  1  0  0  0
  5  6  1  0  0  0
  6  7  1  0  0  0
  7  8  1  0  0  0
  8  9  1  0  0  0
  9 10  1  0  0  0
 10 11  1  0  0  0
M  END
> <minimizedAffinity>
-7.24689

> <CNNscore>
0.9186765552

> <CNNaffinity>
6.6849603653

> <CNN_VS>
6.1413164139

> <CNNaffinity_variance>
0.3284433186

$$$$
/media/chris/experiments/cd1a-new-docking/inputs/ligands/4x6d_1_ligand.pdb


 21 20  0  0  0  0  0  0  0  0999 V2000
  -47.7951   58.1279   65.6637 C   0  0  0  0  0  0  0  0  0  0  0  0
  -48.5396   59.0967   64.7788 C   0  0  0  0  0  0  0  0  0  0  0  0
  -49.8448   58.7216   64.2178 C   0  0  0  0  0  0  0  0  0  0  0  0
  -49.9692   58.3544   62.7560 C   0  0  0  0  0  0  0  0  0  0  0  0
  -50.0185   59.6167   61.8960 C   0  0  0  0  0  0  0  0  0  0  0  0
  -49.1605   59.5207   60.6373 C   0  0  0  0  0  0  0  0  0  0  0  0
  -48.5762   58.1168   60.4591 C   0  0  0  0  0  0  0  0  0  0  0  0
  -48.5429   57.6106   59.0120 C   0  0  0  0  0  0  0  0  0  0  0  0
  -47.1973   57.8927   58.3307 C   0  0  0  0  0  0  0  0  0  0  0  0
  -47.1490   57.3859   56.8869 C   0  0  0  0  0  0  0  0  0  0  0  0
  -48.3502   56.5112   56.5080 C   0  0  0  0  0  0  0  0  0  0  0  0
  -46.8474   58.9377   66.5338 C   0  0  0  0  0  0  0  0  0  0  0  0
  -45.8512   59.7254   65.7017 C   0  0  0  0  0  0  0  0  0  0  0  0
  -44.4450   59.6228   66.2845 C   0  0  0  0  0  0  0  0  0  0  0  0
  -43.4214   59.4917   65.1654 C   0  0  0  0  0  0  0  0  0  0  0  0
  -43.5312   60.6521   64.1889 C   0  0  0  0  0  0  0  0  0  0  0  0
  -42.2898   60.7489   63.3081 C   0  0  0  0  0  0  0  0  0  0  0  0
  -42.1351   62.1684   62.7979 C   0  0  0  0  0  0  0  0  0  0  0  0
  -41.6607   63.0601   63.5471 O   0  0  0  0  0  0  0  0  0  0  0  0
  -42.4837   62.4651   61.6259 O   0  0  0  0  0  0  0  0  0  0  0  0
  -42.8381   61.8063   61.0616 H   0  0  0  0  0  0  0  0  0  0  0  0
 18 19  2  0  0  0
 18 17  1  0  0  0
 18 20  1  0  0  0
 17 16  1  0  0  0
 20 21  1  0  0  0
 16 15  1  0  0  0
 15 14  1  0  0  0
 14 13  1  0  0  0
 13 12  1  0  0  0
 12  1  1  0  0  0
  1  2  1  0  0  0
  2  3  1  0  0  0
  3  4  1  0  0  0
  4  5  1  0  0  0
  5  6  1  0  0  0
  6  7  1  0  0  0
  7  8  1  0  0  0
  8  9  1  0  0  0
  9 10  1  0  0  0
 10 11  1  0  0  0
M  END
> <minimizedAffinity>
-6.74677

> <CNNscore>
0.8431011438

> <CNNaffinity>
6.7946152687

> <CNN_VS>
5.7285480499

> <CNNaffinity_variance>
0.6396201849

$$$$
/media/chris/experiments/cd1a-new-docking/inputs/ligands/4x6d_1_ligand.pdb


 21 20  0  0  0  0  0  0  0  0999 V2000
  -50.0945   59.8374   65.7875 C   0  0  0  0  0  0  0  0  0  0  0  0
  -51.0316   60.2089   64.6652 C   0  0  0  0  0  0  0  0  0  0  0  0
  -50.5866   60.0901   63.2699 C   0  0  0  0  0  0  0  0  0  0  0  0
  -51.1145   58.9761   62.3936 C   0  0  0  0  0  0  0  0  0  0  0  0
  -49.9617   58.2806   61.6707 C   0  0  0  0  0  0  0  0  0  0  0  0
  -50.4282   57.2336   60.6627 C   0  0  0  0  0  0  0  0  0  0  0  0
  -49.2521   56.6354   59.8862 C   0  0  0  0  0  0  0  0  0  0  0  0
  -48.3389   57.6625   59.2060 C   0  0  0  0  0  0  0  0  0  0  0  0
  -47.0837   57.0143   58.6070 C   0  0  0  0  0  0  0  0  0  0  0  0
  -47.4029   56.0798   57.4371 C   0  0  0  0  0  0  0  0  0  0  0  0
  -48.0314   56.7990   56.2374 C   0  0  0  0  0  0  0  0  0  0  0  0
  -49.6507   58.4017   65.5573 C   0  0  0  0  0  0  0  0  0  0  0  0
  -48.1394   58.2638   65.6036 C   0  0  0  0  0  0  0  0  0  0  0  0
  -47.4704   59.6160   65.8313 C   0  0  0  0  0  0  0  0  0  0  0  0
  -46.1651   59.4340   66.5930 C   0  0  0  0  0  0  0  0  0  0  0  0
  -45.0392   59.0295   65.6544 C   0  0  0  0  0  0  0  0  0  0  0  0
  -43.9081   60.0524   65.6797 C   0  0  0  0  0  0  0  0  0  0  0  0
  -42.9533   59.7300   66.8126 C   0  0  0  0  0  0  0  0  0  0  0  0
  -42.4218   58.5926   66.8855 O   0  0  0  0  0  0  0  0  0  0  0  0
  -42.6899   60.5940   67.6885 O   0  0  0  0  0  0  0  0  0  0  0  0
  -43.0819   61.4438   67.6411 H   0  0  0  0  0  0  0  0  0  0  0  0
 18 19  2  0  0  0
 18 17  1  0  0  0
 18 20  1  0  0  0
 17 16  1  0  0  0
 20 21  1  0  0  0
 16 15  1  0  0  0
 15 14  1  0  0  0
 14 13  1  0  0  0
 13 12  1  0  0  0
 12  1  1  0  0  0
  1  2  1  0  0  0
  2  3  1  0  0  0
  3  4  1  0  0  0
  4  5  1  0  0  0
  5  6  1  0  0  0
  6  7  1  0  0  0
  7  8  1  0  0  0
  8  9  1  0  0  0
  9 10  1  0  0  0
 10 11  1  0  0  0
M  END
> <minimizedAffinity>
-7.08674

> <CNNscore>
0.8340815902

> <CNNaffinity>
6.7529435158

> <CNN_VS>
5.6325058937

> <CNNaffinity_variance>
0.4284761846

$$$$
/media/chris/experiments/cd1a-new-docking/inputs/ligands/4x6d_1_ligand.pdb


 21 20  0  0  0  0  0  0  0  0999 V2000
  -50.7302   58.5194   62.8898 C   0  0  0  0  0  0  0  0  0  0  0  0
  -50.9800   59.8974   63.4507 C   0  0  0  0  0  0  0  0  0  0  0  0
  -50.5460   60.2219   64.8164 C   0  0  0  0  0  0  0  0  0  0  0  0
  -49.5541   59.3329   65.5327 C   0  0  0  0  0  0  0  0  0  0  0  0
  -48.4448   60.1764   66.1600 C   0  0  0  0  0  0  0  0  0  0  0  0
  -47.2833   60.4469   65.2075 C   0  0  0  0  0  0  0  0  0  0  0  0
  -46.0458   59.6261   65.5801 C   0  0  0  0  0  0  0  0  0  0  0  0
  -44.7072   60.2616   65.1854 C   0  0  0  0  0  0  0  0  0  0  0  0
  -43.5819   59.2236   65.0812 C   0  0  0  0  0  0  0  0  0  0  0  0
  -42.8750   58.9833   66.4177 C   0  0  0  0  0  0  0  0  0  0  0  0
  -42.6538   60.2658   67.2289 C   0  0  0  0  0  0  0  0  0  0  0  0
  -50.1930   58.6900   61.4780 C   0  0  0  0  0  0  0  0  0  0  0  0
  -50.5256   57.4972   60.5996 C   0  0  0  0  0  0  0  0  0  0  0  0
  -49.7487   57.5468   59.2874 C   0  0  0  0  0  0  0  0  0  0  0  0
  -48.4168   58.2548   59.4926 C   0  0  0  0  0  0  0  0  0  0  0  0
  -47.4312   57.8891   58.3939 C   0  0  0  0  0  0  0  0  0  0  0  0
  -47.4276   56.3857   58.1366 C   0  0  0  0  0  0  0  0  0  0  0  0
  -47.5952   56.1213   56.6529 C   0  0  0  0  0  0  0  0  0  0  0  0
  -48.0704   57.0119   55.9029 O   0  0  0  0  0  0  0  0  0  0  0  0
  -47.2654   55.0103   56.1631 O   0  0  0  0  0  0  0  0  0  0  0  0
  -46.9105   54.3416   56.7153 H   0  0  0  0  0  0  0  0  0  0  0  0
 18 19  2  0  0  0
 18 17  1  0  0  0
 18 20  1  0  0  0
 17 16  1  0  0  0
 20 21  1  0  0  0
 16 15  1  0  0  0
 15 14  1  0  0  0
 14 13  1  0  0  0
 13 12  1  0  0  0
 12  1  1  0  0  0
  1  2  1  0  0  0
  2  3  1  0  0  0
  3  4  1  0  0  0
  4  5  1  0  0  0
  5  6  1  0  0  0
  6  7  1  0  0  0
  7  8  1  0  0  0
  8  9  1  0  0  0
  9 10  1  0  0  0
 10 11  1  0  0  0
M  END
> <minimizedAffinity>
-7.65465

> <CNNscore>
0.7514814138

> <CNNaffinity>
6.7433915138

> <CNN_VS>
5.0675334930

> <CNNaffinity_variance>
0.4410739541

$$$$
/media/chris/experiments/cd1a-new-docking/inputs/ligands/4x6d_1_ligand.pdb


 21 20  0  0  0  0  0  0  0  0999 V2000
  -47.3379   58.5874   64.4986 C   0  0  0  0  0  0  0  0  0  0  0  0
  -48.4102   58.1567   65.4684 C   0  0  0  0  0  0  0  0  0  0  0  0
  -49.8224   58.4280   65.1666 C   0  0  0  0  0  0  0  0  0  0  0  0
  -50.4536   59.7372   65.5851 C   0  0  0  0  0  0  0  0  0  0  0  0
  -50.7854   60.5812   64.3550 C   0  0  0  0  0  0  0  0  0  0  0  0
  -50.8323   59.7693   63.0634 C   0  0  0  0  0  0  0  0  0  0  0  0
  -49.7802   60.2469   62.0589 C   0  0  0  0  0  0  0  0  0  0  0  0
  -49.4727   59.2585   60.9275 C   0  0  0  0  0  0  0  0  0  0  0  0
  -49.4004   57.8097   61.4279 C   0  0  0  0  0  0  0  0  0  0  0  0
  -49.5730   56.7870   60.3019 C   0  0  0  0  0  0  0  0  0  0  0  0
  -49.5025   57.4062   58.9008 C   0  0  0  0  0  0  0  0  0  0  0  0
  -46.5518   59.7113   65.1544 C   0  0  0  0  0  0  0  0  0  0  0  0
  -45.4994   59.1803   66.1112 C   0  0  0  0  0  0  0  0  0  0  0  0
  -44.1689   59.9024   65.9213 C   0  0  0  0  0  0  0  0  0  0  0  0
  -43.4856   59.4179   64.6502 C   0  0  0  0  0  0  0  0  0  0  0  0
  -42.1707   60.1482   64.4270 C   0  0  0  0  0  0  0  0  0  0  0  0
  -41.1828   59.8583   65.5523 C   0  0  0  0  0  0  0  0  0  0  0  0
  -40.3762   61.1055   65.8576 C   0  0  0  0  0  0  0  0  0  0  0  0
  -39.1425   61.0189   66.0858 O   0  0  0  0  0  0  0  0  0  0  0  0
  -40.9344   62.2326   65.8896 O   0  0  0  0  0  0  0  0  0  0  0  0
  -41.8532   62.3053   65.7207 H   0  0  0  0  0  0  0  0  0  0  0  0
 18 19  2  0  0  0
 18 17  1  0  0  0
 18 20  1  0  0  0
 17 16  1  0  0  0
 20 21  1  0  0  0
 16 15  1  0  0  0
 15 14  1  0  0  0
 14 13  1  0  0  0
 13 12  1  0  0  0
 12  1  1  0  0  0
  1  2  1  0  0  0
  2  3  1  0  0  0
  3  4  1  0  0  0
  4  5  1  0  0  0
  5  6  1  0  0  0
  6  7  1  0  0  0
  7  8  1  0  0  0
  8  9  1  0  0  0
  9 10  1  0  0  0
 10 11  1  0  0  0
M  END
> <minimizedAffinity>
-6.87433

> <CNNscore>
0.7502624989

> <CNNaffinity>
6.4644799232

> <CNN_VS>
4.8500566483

> <CNNaffinity_variance>
0.3206900656

$$$$
/media/chris/experiments/cd1a-new-docking/inputs/ligands/4x6d_1_ligand.pdb


 21 20  0  0  0  0  0  0  0  0999 V2000
  -45.1215   60.1015   65.2595 C   0  0  0  0  0  0  0  0  0  0  0  0
  -46.4986   60.6994   65.1120 C   0  0  0  0  0  0  0  0  0  0  0  0
  -47.5277   60.4267   66.1247 C   0  0  0  0  0  0  0  0  0  0  0  0
  -48.7963   59.6959   65.7450 C   0  0  0  0  0  0  0  0  0  0  0  0
  -48.8678   59.5131   64.2294 C   0  0  0  0  0  0  0  0  0  0  0  0
  -49.6496   60.6196   63.5265 C   0  0  0  0  0  0  0  0  0  0  0  0
  -50.3408   60.1049   62.2611 C   0  0  0  0  0  0  0  0  0  0  0  0
  -49.5338   60.2787   60.9688 C   0  0  0  0  0  0  0  0  0  0  0  0
  -48.9567   58.9498   60.4634 C   0  0  0  0  0  0  0  0  0  0  0  0
  -49.7938   57.7418   60.8918 C   0  0  0  0  0  0  0  0  0  0  0  0
  -49.4028   56.4444   60.1738 C   0  0  0  0  0  0  0  0  0  0  0  0
  -45.1634   59.1397   66.4361 C   0  0  0  0  0  0  0  0  0  0  0  0
  -44.9613   57.7007   65.9963 C   0  0  0  0  0  0  0  0  0  0  0  0
  -43.6617   57.5423   65.2129 C   0  0  0  0  0  0  0  0  0  0  0  0
  -42.4700   57.8706   66.1014 C   0  0  0  0  0  0  0  0  0  0  0  0
  -41.5956   58.9400   65.4659 C   0  0  0  0  0  0  0  0  0  0  0  0
  -41.3558   60.0981   66.4290 C   0  0  0  0  0  0  0  0  0  0  0  0
  -40.4243   61.1095   65.7896 C   0  0  0  0  0  0  0  0  0  0  0  0
  -40.8513   61.8831   64.8947 O   0  0  0  0  0  0  0  0  0  0  0  0
  -39.2194   61.1789   66.1451 O   0  0  0  0  0  0  0  0  0  0  0  0
  -38.8937   60.6060   66.8113 H   0  0  0  0  0  0  0  0  0  0  0  0
 18 19  2  0  0  0
 18 17  1  0  0  0
 18 20  1  0  0  0
 17 16  1  0  0  0
 20 21  1  0  0  0
 16 15  1  0  0  0
 15 14  1  0  0  0
 14 13  1  0  0  0
 13 12  1  0  0  0
 12  1  1  0  0  0
  1  2  1  0  0  0
  2  3  1  0  0  0
  3  4  1  0  0  0
  4  5  1  0  0  0
  5  6  1  0  0  0
  6  7  1  0  0  0
  7  8  1  0  0  0
  8  9  1  0  0  0
  9 10  1  0  0  0
 10 11  1  0  0  0
M  END
> <minimizedAffinity>
-6.56044

> <CNNscore>
0.7403165698

> <CNNaffinity>
6.4869947433

> <CNN_VS>
4.8024296761

> <CNNaffinity_variance>
0.3361534476

$$$$
/media/chris/experiments/cd1a-new-docking/inputs/ligands/4x6d_1_ligand.pdb


 21 20  0  0  0  0  0  0  0  0999 V2000
  -49.2137   59.1605   63.3882 C   0  0  0  0  0  0  0  0  0  0  0  0
  -48.7045   58.0516   64.2752 C   0  0  0  0  0  0  0  0  0  0  0  0
  -47.7349   58.3506   65.3380 C   0  0  0  0  0  0  0  0  0  0  0  0
  -46.8712   59.5894   65.2556 C   0  0  0  0  0  0  0  0  0  0  0  0
  -45.3935   59.2109   65.3486 C   0  0  0  0  0  0  0  0  0  0  0  0
  -44.4543   60.3815   65.0706 C   0  0  0  0  0  0  0  0  0  0  0  0
  -43.0595   60.1353   65.6519 C   0  0  0  0  0  0  0  0  0  0  0  0
  -41.9284   60.0882   64.6174 C   0  0  0  0  0  0  0  0  0  0  0  0
  -41.7869   61.4114   63.8535 C   0  0  0  0  0  0  0  0  0  0  0  0
  -41.8039   61.2208   62.3346 C   0  0  0  0  0  0  0  0  0  0  0  0
  -42.4049   62.4116   61.5781 C   0  0  0  0  0  0  0  0  0  0  0  0
  -50.5354   58.7013   62.7939 C   0  0  0  0  0  0  0  0  0  0  0  0
  -50.4152   58.4087   61.3090 C   0  0  0  0  0  0  0  0  0  0  0  0
  -49.0823   58.9048   60.7568 C   0  0  0  0  0  0  0  0  0  0  0  0
  -48.2077   57.7245   60.3576 C   0  0  0  0  0  0  0  0  0  0  0  0
  -48.6088   57.1870   58.9929 C   0  0  0  0  0  0  0  0  0  0  0  0
  -47.4445   56.4652   58.3224 C   0  0  0  0  0  0  0  0  0  0  0  0
  -47.8221   56.0980   56.9005 C   0  0  0  0  0  0  0  0  0  0  0  0
  -47.7921   54.8965   56.5299 O   0  0  0  0  0  0  0  0  0  0  0  0
  -48.1629   56.9903   56.0816 O   0  0  0  0  0  0  0  0  0  0  0  0
  -48.1877   57.8877   56.3501 H   0  0  0  0  0  0  0  0  0  0  0  0
 18 19  2  0  0  0
 18 17  1  0  0  0
 18 20  1  0  0  0
 17 16  1  0  0  0
 20 21  1  0  0  0
 16 15  1  0  0  0
 15 14  1  0  0  0
 14 13  1  0  0  0
 13 12  1  0  0  0
 12  1  1  0  0  0
  1  2  1  0  0  0
  2  3  1  0  0  0
  3  4  1  0  0  0
  4  5  1  0  0  0
  5  6  1  0  0  0
  6  7  1  0  0  0
  7  8  1  0  0  0
  8  9  1  0  0  0
  9 10  1  0  0  0
 10 11  1  0  0  0
M  END
> <minimizedAffinity>
-6.76899

> <CNNscore>
0.7278378010

> <CNNaffinity>
6.7012343407

> <CNN_VS>
4.8774118423

> <CNNaffinity_variance>
0.6724146008

$$$$
/media/chris/experiments/cd1a-new-docking/inputs/ligands/4x6d_1_ligand.pdb


 21 20  0  0  0  0  0  0  0  0999 V2000
  -48.7009   58.6556   65.7799 C   0  0  0  0  0  0  0  0  0  0  0  0
  -47.9679   57.3737   65.4709 C   0  0  0  0  0  0  0  0  0  0  0  0
  -46.7310   57.0451   66.1927 C   0  0  0  0  0  0  0  0  0  0  0  0
  -45.6125   58.0586   66.2893 C   0  0  0  0  0  0  0  0  0  0  0  0
  -44.6927   57.9485   65.0738 C   0  0  0  0  0  0  0  0  0  0  0  0
  -43.3180   57.3765   65.4098 C   0  0  0  0  0  0  0  0  0  0  0  0
  -42.3995   58.4384   66.0201 C   0  0  0  0  0  0  0  0  0  0  0  0
  -41.2304   58.8709   65.1268 C   0  0  0  0  0  0  0  0  0  0  0  0
  -41.3317   60.3453   64.7143 C   0  0  0  0  0  0  0  0  0  0  0  0
  -42.4887   60.6096   63.7473 C   0  0  0  0  0  0  0  0  0  0  0  0
  -42.0596   61.3406   62.4694 C   0  0  0  0  0  0  0  0  0  0  0  0
  -50.0581   58.5826   65.0990 C   0  0  0  0  0  0  0  0  0  0  0  0
  -50.5911   59.9616   64.7536 C   0  0  0  0  0  0  0  0  0  0  0  0
  -51.1298   60.0015   63.3267 C   0  0  0  0  0  0  0  0  0  0  0  0
  -50.9525   58.6442   62.6607 C   0  0  0  0  0  0  0  0  0  0  0  0
  -50.1112   58.7627   61.3996 C   0  0  0  0  0  0  0  0  0  0  0  0
  -50.2707   57.5308   60.5145 C   0  0  0  0  0  0  0  0  0  0  0  0
  -49.1009   57.4371   59.5543 C   0  0  0  0  0  0  0  0  0  0  0  0
  -49.3056   57.2702   58.3247 O   0  0  0  0  0  0  0  0  0  0  0  0
  -47.9198   57.5206   59.9797 O   0  0  0  0  0  0  0  0  0  0  0  0
  -47.7590   57.6450   60.8944 H   0  0  0  0  0  0  0  0  0  0  0  0
 18 19  2  0  0  0
 18 17  1  0  0  0
 18 20  1  0  0  0
 17 16  1  0  0  0
 20 21  1  0  0  0
 16 15  1  0  0  0
 15 14  1  0  0  0
 14 13  1  0  0  0
 13 12  1  0  0  0
 12  1  1  0  0  0
  1  2  1  0  0  0
  2  3  1  0  0  0
  3  4  1  0  0  0
  4  5  1  0  0  0
  5  6  1  0  0  0
  6  7  1  0  0  0
  7  8  1  0  0  0
  8  9  1  0  0  0
  9 10  1  0  0  0
 10 11  1  0  0  0
M  END
> <minimizedAffinity>
-6.76261

> <CNNscore>
0.6433322430

> <CNNaffinity>
6.4737062454

> <CNN_VS>
4.1647439003

> <CNNaffinity_variance>
0.8627022505

$$$$
