/media/chris/experiments/cd1a-new-docking/inputs/ligands/4x6d_1_ligand.pdb


 21 20  0  0  0  0  0  0  0  0999 V2000
  -46.5641   57.3000   66.2038 C   0  0  0  0  0  0  0  0  0  0  0  0
  -47.6964   57.7690   65.3241 C   0  0  0  0  0  0  0  0  0  0  0  0
  -48.5941   58.8342   65.7915 C   0  0  0  0  0  0  0  0  0  0  0  0
  -49.9940   58.9521   65.2315 C   0  0  0  0  0  0  0  0  0  0  0  0
  -50.0274   59.9832   64.1040 C   0  0  0  0  0  0  0  0  0  0  0  0
  -50.8963   59.5561   62.9241 C   0  0  0  0  0  0  0  0  0  0  0  0
  -50.6224   58.1053   62.5185 C   0  0  0  0  0  0  0  0  0  0  0  0
  -49.4533   57.9174   61.5441 C   0  0  0  0  0  0  0  0  0  0  0  0
  -49.7845   58.4306   60.1365 C   0  0  0  0  0  0  0  0  0  0  0  0
  -49.1505   57.5793   59.0336 C   0  0  0  0  0  0  0  0  0  0  0  0
  -47.6200   57.6707   58.9974 C   0  0  0  0  0  0  0  0  0  0  0  0
  -45.3070   57.2606   65.3499 C   0  0  0  0  0  0  0  0  0  0  0  0
  -44.7897   58.6544   65.0422 C   0  0  0  0  0  0  0  0  0  0  0  0
  -44.0023   59.2213   66.2197 C   0  0  0  0  0  0  0  0  0  0  0  0
  -42.7736   58.3642   66.4904 C   0  0  0  0  0  0  0  0  0  0  0  0
  -41.5191   59.2201   66.5666 C   0  0  0  0  0  0  0  0  0  0  0  0
  -41.8664   60.7052   66.5727 C   0  0  0  0  0  0  0  0  0  0  0  0
  -40.7719   61.4883   65.8741 C   0  0  0  0  0  0  0  0  0  0  0  0
  -39.5670   61.3005   66.1818 O   0  0  0  0  0  0  0  0  0  0  0  0
  -41.0603   62.3329   64.9873 O   0  0  0  0  0  0  0  0  0  0  0  0
  -41.9555   62.4786   64.7525 H   0  0  0  0  0  0  0  0  0  0  0  0
 18 19  2  0  0  0
 18 17  1  0  0  0
 18 20  1  0  0  0
 17 16  1  0  0  0
 20 21  1  0  0  0
 16 15  1  0  0  0
 15 14  1  0  0  0
 14 13  1  0  0  0
 13 12  1  0  0  0
 12  1  1  0  0  0
  1  2  1  0  0  0
  2  3  1  0  0  0
  3  4  1  0  0  0
  4  5  1  0  0  0
  5  6  1  0  0  0
  6  7  1  0  0  0
  7  8  1  0  0  0
  8  9  1  0  0  0
  9 10  1  0  0  0
 10 11  1  0  0  0
M  END
> <minimizedAffinity>
-6.82130

> <CNNscore>
0.9492080808

> <CNNaffinity>
6.9806318283

> <CNN_VS>
6.6260719299

> <CNNaffinity_variance>
0.7560303807

$$$$
/media/chris/experiments/cd1a-new-docking/inputs/ligands/4x6d_1_ligand.pdb


 21 20  0  0  0  0  0  0  0  0999 V2000
  -47.9763   58.4966   64.4107 C   0  0  0  0  0  0  0  0  0  0  0  0
  -48.3855   59.8896   64.0008 C   0  0  0  0  0  0  0  0  0  0  0  0
  -49.4834   60.0783   63.0427 C   0  0  0  0  0  0  0  0  0  0  0  0
  -50.7344   59.2340   63.1405 C   0  0  0  0  0  0  0  0  0  0  0  0
  -50.7801   58.2218   61.9963 C   0  0  0  0  0  0  0  0  0  0  0  0
  -49.8280   58.5631   60.8533 C   0  0  0  0  0  0  0  0  0  0  0  0
  -50.1710   57.7820   59.5818 C   0  0  0  0  0  0  0  0  0  0  0  0
  -48.9829   57.0751   58.9185 C   0  0  0  0  0  0  0  0  0  0  0  0
  -47.7031   57.9200   58.9717 C   0  0  0  0  0  0  0  0  0  0  0  0
  -46.9952   58.0050   57.6171 C   0  0  0  0  0  0  0  0  0  0  0  0
  -47.5821   57.0586   56.5627 C   0  0  0  0  0  0  0  0  0  0  0  0
  -46.9923   58.6283   65.5619 C   0  0  0  0  0  0  0  0  0  0  0  0
  -45.5537   58.6351   65.0768 C   0  0  0  0  0  0  0  0  0  0  0  0
  -44.7968   59.8449   65.6168 C   0  0  0  0  0  0  0  0  0  0  0  0
  -43.7762   59.4037   66.6567 C   0  0  0  0  0  0  0  0  0  0  0  0
  -42.6391   60.4076   66.7632 C   0  0  0  0  0  0  0  0  0  0  0  0
  -41.3510   59.8438   66.1720 C   0  0  0  0  0  0  0  0  0  0  0  0
  -40.3374   60.9585   66.0005 C   0  0  0  0  0  0  0  0  0  0  0  0
  -40.6863   62.1573   66.1513 O   0  0  0  0  0  0  0  0  0  0  0  0
  -39.1441   60.6934   65.7023 O   0  0  0  0  0  0  0  0  0  0  0  0
  -38.8764   59.8029   65.5883 H   0  0  0  0  0  0  0  0  0  0  0  0
 18 19  2  0  0  0
 18 17  1  0  0  0
 18 20  1  0  0  0
 17 16  1  0  0  0
 20 21  1  0  0  0
 16 15  1  0  0  0
 15 14  1  0  0  0
 14 13  1  0  0  0
 13 12  1  0  0  0
 12  1  1  0  0  0
  1  2  1  0  0  0
  2  3  1  0  0  0
  3  4  1  0  0  0
  4  5  1  0  0  0
  5  6  1  0  0  0
  6  7  1  0  0  0
  7  8  1  0  0  0
  8  9  1  0  0  0
  9 10  1  0  0  0
 10 11  1  0  0  0
M  END
> <minimizedAffinity>
-7.14904

> <CNNscore>
0.9442614913

> <CNNaffinity>
7.0087523460

> <CNN_VS>
6.6180949211

> <CNNaffinity_variance>
0.8351415396

$$$$
/media/chris/experiments/cd1a-new-docking/inputs/ligands/4x6d_1_ligand.pdb


 21 20  0  0  0  0  0  0  0  0999 V2000
  -46.7289   57.2718   65.6434 C   0  0  0  0  0  0  0  0  0  0  0  0
  -47.1101   58.3170   64.6245 C   0  0  0  0  0  0  0  0  0  0  0  0
  -47.6966   59.5900   65.0653 C   0  0  0  0  0  0  0  0  0  0  0  0
  -48.8346   59.6008   66.0614 C   0  0  0  0  0  0  0  0  0  0  0  0
  -50.1482   59.2422   65.3674 C   0  0  0  0  0  0  0  0  0  0  0  0
  -50.6538   60.3385   64.4337 C   0  0  0  0  0  0  0  0  0  0  0  0
  -51.1761   59.7599   63.1159 C   0  0  0  0  0  0  0  0  0  0  0  0
  -50.4712   58.4808   62.6483 C   0  0  0  0  0  0  0  0  0  0  0  0
  -49.7454   58.6756   61.3105 C   0  0  0  0  0  0  0  0  0  0  0  0
  -50.2345   57.7105   60.2277 C   0  0  0  0  0  0  0  0  0  0  0  0
  -49.4708   56.3808   60.2067 C   0  0  0  0  0  0  0  0  0  0  0  0
  -45.3984   57.6874   66.2501 C   0  0  0  0  0  0  0  0  0  0  0  0
  -44.2344   57.3710   65.3281 C   0  0  0  0  0  0  0  0  0  0  0  0
  -43.3225   58.5825   65.1580 C   0  0  0  0  0  0  0  0  0  0  0  0
  -43.7611   59.7041   66.0891 C   0  0  0  0  0  0  0  0  0  0  0  0
  -42.5597   60.3782   66.7328 C   0  0  0  0  0  0  0  0  0  0  0  0
  -41.2533   59.7959   66.2029 C   0  0  0  0  0  0  0  0  0  0  0  0
  -40.2467   60.9099   65.9910 C   0  0  0  0  0  0  0  0  0  0  0  0
  -40.6265   62.1086   65.9739 O   0  0  0  0  0  0  0  0  0  0  0  0
  -39.0280   60.6437   65.8264 O   0  0  0  0  0  0  0  0  0  0  0  0
  -38.7372   59.7532   65.8378 H   0  0  0  0  0  0  0  0  0  0  0  0
 18 19  2  0  0  0
 18 17  1  0  0  0
 18 20  1  0  0  0
 17 16  1  0  0  0
 20 21  1  0  0  0
 16 15  1  0  0  0
 15 14  1  0  0  0
 14 13  1  0  0  0
 13 12  1  0  0  0
 12  1  1  0  0  0
  1  2  1  0  0  0
  2  3  1  0  0  0
  3  4  1  0  0  0
  4  5  1  0  0  0
  5  6  1  0  0  0
  6  7  1  0  0  0
  7  8  1  0  0  0
  8  9  1  0  0  0
  9 10  1  0  0  0
 10 11  1  0  0  0
M  END
> <minimizedAffinity>
-6.72587

> <CNNscore>
0.8856651187

> <CNNaffinity>
6.7633590698

> <CNN_VS>
5.9900712967

> <CNNaffinity_variance>
0.4198911190

$$$$
/media/chris/experiments/cd1a-new-docking/inputs/ligands/4x6d_1_ligand.pdb


 21 20  0  0  0  0  0  0  0  0999 V2000
  -47.1450   58.7178   64.6371 C   0  0  0  0  0  0  0  0  0  0  0  0
  -47.8594   59.9432   65.1507 C   0  0  0  0  0  0  0  0  0  0  0  0
  -49.0794   59.7959   65.9563 C   0  0  0  0  0  0  0  0  0  0  0  0
  -50.4122   59.5524   65.2841 C   0  0  0  0  0  0  0  0  0  0  0  0
  -50.4928   60.3316   63.9718 C   0  0  0  0  0  0  0  0  0  0  0  0
  -51.1766   59.5530   62.8512 C   0  0  0  0  0  0  0  0  0  0  0  0
  -50.4283   58.2569   62.5276 C   0  0  0  0  0  0  0  0  0  0  0  0
  -50.8463   57.5808   61.2162 C   0  0  0  0  0  0  0  0  0  0  0  0
  -49.6530   56.9576   60.4801 C   0  0  0  0  0  0  0  0  0  0  0  0
  -48.4486   57.8995   60.4048 C   0  0  0  0  0  0  0  0  0  0  0  0
  -47.8361   57.9941   59.0020 C   0  0  0  0  0  0  0  0  0  0  0  0
  -46.3106   58.1616   65.7796 C   0  0  0  0  0  0  0  0  0  0  0  0
  -45.6743   59.2665   66.6038 C   0  0  0  0  0  0  0  0  0  0  0  0
  -44.1791   59.3736   66.3190 C   0  0  0  0  0  0  0  0  0  0  0  0
  -43.9259   60.4007   65.2241 C   0  0  0  0  0  0  0  0  0  0  0  0
  -42.9310   59.8729   64.2025 C   0  0  0  0  0  0  0  0  0  0  0  0
  -42.4263   60.9922   63.2976 C   0  0  0  0  0  0  0  0  0  0  0  0
  -40.9303   61.1601   63.4792 C   0  0  0  0  0  0  0  0  0  0  0  0
  -40.1388   60.7805   62.5786 O   0  0  0  0  0  0  0  0  0  0  0  0
  -40.4705   61.6746   64.5313 O   0  0  0  0  0  0  0  0  0  0  0  0
  -41.0536   61.9598   65.2069 H   0  0  0  0  0  0  0  0  0  0  0  0
 18 19  2  0  0  0
 18 17  1  0  0  0
 18 20  1  0  0  0
 17 16  1  0  0  0
 20 21  1  0  0  0
 16 15  1  0  0  0
 15 14  1  0  0  0
 14 13  1  0  0  0
 13 12  1  0  0  0
 12  1  1  0  0  0
  1  2  1  0  0  0
  2  3  1  0  0  0
  3  4  1  0  0  0
  4  5  1  0  0  0
  5  6  1  0  0  0
  6  7  1  0  0  0
  7  8  1  0  0  0
  8  9  1  0  0  0
  9 10  1  0  0  0
 10 11  1  0  0  0
M  END
> <minimizedAffinity>
-6.77912

> <CNNscore>
0.8198622465

> <CNNaffinity>
6.7472038269

> <CNN_VS>
5.5317778587

> <CNNaffinity_variance>
0.5109961629

$$$$
/media/chris/experiments/cd1a-new-docking/inputs/ligands/4x6d_1_ligand.pdb


 21 20  0  0  0  0  0  0  0  0999 V2000
  -48.9073   60.8489   64.4023 C   0  0  0  0  0  0  0  0  0  0  0  0
  -50.2732   60.2358   64.5873 C   0  0  0  0  0  0  0  0  0  0  0  0
  -51.0634   59.8400   63.4135 C   0  0  0  0  0  0  0  0  0  0  0  0
  -50.3849   59.5993   62.0834 C   0  0  0  0  0  0  0  0  0  0  0  0
  -49.9892   58.1291   61.9501 C   0  0  0  0  0  0  0  0  0  0  0  0
  -50.6928   57.4193   60.7966 C   0  0  0  0  0  0  0  0  0  0  0  0
  -49.8667   57.4809   59.5090 C   0  0  0  0  0  0  0  0  0  0  0  0
  -48.3541   57.3220   59.7046 C   0  0  0  0  0  0  0  0  0  0  0  0
  -47.5601   57.7751   58.4722 C   0  0  0  0  0  0  0  0  0  0  0  0
  -48.0390   57.1043   57.1822 C   0  0  0  0  0  0  0  0  0  0  0  0
  -47.6076   55.6375   57.0620 C   0  0  0  0  0  0  0  0  0  0  0  0
  -47.9345   60.0720   65.2746 C   0  0  0  0  0  0  0  0  0  0  0  0
  -48.3973   58.6440   65.5024 C   0  0  0  0  0  0  0  0  0  0  0  0
  -47.2219   57.6719   65.4624 C   0  0  0  0  0  0  0  0  0  0  0  0
  -46.1367   58.1990   64.5340 C   0  0  0  0  0  0  0  0  0  0  0  0
  -44.8027   57.5275   64.8199 C   0  0  0  0  0  0  0  0  0  0  0  0
  -44.4336   57.6439   66.2952 C   0  0  0  0  0  0  0  0  0  0  0  0
  -43.3961   58.7346   66.4773 C   0  0  0  0  0  0  0  0  0  0  0  0
  -43.6828   59.9293   66.2088 O   0  0  0  0  0  0  0  0  0  0  0  0
  -42.2423   58.4528   66.8927 O   0  0  0  0  0  0  0  0  0  0  0  0
  -42.0210   57.5651   67.0949 H   0  0  0  0  0  0  0  0  0  0  0  0
 18 19  2  0  0  0
 18 17  1  0  0  0
 18 20  1  0  0  0
 17 16  1  0  0  0
 20 21  1  0  0  0
 16 15  1  0  0  0
 15 14  1  0  0  0
 14 13  1  0  0  0
 13 12  1  0  0  0
 12  1  1  0  0  0
  1  2  1  0  0  0
  2  3  1  0  0  0
  3  4  1  0  0  0
  4  5  1  0  0  0
  5  6  1  0  0  0
  6  7  1  0  0  0
  7  8  1  0  0  0
  8  9  1  0  0  0
  9 10  1  0  0  0
 10 11  1  0  0  0
M  END
> <minimizedAffinity>
-6.81133

> <CNNscore>
0.7726865411

> <CNNaffinity>
6.7131109238

> <CNN_VS>
5.1871304512

> <CNNaffinity_variance>
0.4697975516

$$$$
/media/chris/experiments/cd1a-new-docking/inputs/ligands/4x6d_1_ligand.pdb


 21 20  0  0  0  0  0  0  0  0999 V2000
  -50.0975   58.8650   63.9307 C   0  0  0  0  0  0  0  0  0  0  0  0
  -48.6437   58.9930   64.3127 C   0  0  0  0  0  0  0  0  0  0  0  0
  -48.1498   60.2429   64.9066 C   0  0  0  0  0  0  0  0  0  0  0  0
  -47.6251   60.2580   66.3250 C   0  0  0  0  0  0  0  0  0  0  0  0
  -46.7307   59.0434   66.5710 C   0  0  0  0  0  0  0  0  0  0  0  0
  -45.3179   59.4165   67.0116 C   0  0  0  0  0  0  0  0  0  0  0  0
  -44.3024   59.2071   65.8850 C   0  0  0  0  0  0  0  0  0  0  0  0
  -44.2265   60.3489   64.8642 C   0  0  0  0  0  0  0  0  0  0  0  0
  -42.9178   60.3239   64.0636 C   0  0  0  0  0  0  0  0  0  0  0  0
  -42.6545   61.6369   63.3218 C   0  0  0  0  0  0  0  0  0  0  0  0
  -42.0032   61.4399   61.9475 C   0  0  0  0  0  0  0  0  0  0  0  0
  -50.1540   58.2350   62.5483 C   0  0  0  0  0  0  0  0  0  0  0  0
  -49.6122   59.1681   61.4802 C   0  0  0  0  0  0  0  0  0  0  0  0
  -49.5391   58.4699   60.1255 C   0  0  0  0  0  0  0  0  0  0  0  0
  -48.1525   57.8779   59.9146 C   0  0  0  0  0  0  0  0  0  0  0  0
  -47.8435   57.7301   58.4331 C   0  0  0  0  0  0  0  0  0  0  0  0
  -47.4124   56.3052   58.1010 C   0  0  0  0  0  0  0  0  0  0  0  0
  -47.6026   56.0467   56.6190 C   0  0  0  0  0  0  0  0  0  0  0  0
  -47.9356   56.9862   55.8523 O   0  0  0  0  0  0  0  0  0  0  0  0
  -47.4337   54.8925   56.1474 O   0  0  0  0  0  0  0  0  0  0  0  0
  -47.1856   54.1872   56.7121 H   0  0  0  0  0  0  0  0  0  0  0  0
 18 19  2  0  0  0
 18 17  1  0  0  0
 18 20  1  0  0  0
 17 16  1  0  0  0
 20 21  1  0  0  0
 16 15  1  0  0  0
 15 14  1  0  0  0
 14 13  1  0  0  0
 13 12  1  0  0  0
 12  1  1  0  0  0
  1  2  1  0  0  0
  2  3  1  0  0  0
  3  4  1  0  0  0
  4  5  1  0  0  0
  5  6  1  0  0  0
  6  7  1  0  0  0
  7  8  1  0  0  0
  8  9  1  0  0  0
  9 10  1  0  0  0
 10 11  1  0  0  0
M  END
> <minimizedAffinity>
-7.25856

> <CNNscore>
0.7522537708

> <CNNaffinity>
6.8100652695

> <CNN_VS>
5.1228971481

> <CNNaffinity_variance>
0.5668948889

$$$$
/media/chris/experiments/cd1a-new-docking/inputs/ligands/4x6d_1_ligand.pdb


 21 20  0  0  0  0  0  0  0  0999 V2000
  -43.2115   59.8145   66.8583 C   0  0  0  0  0  0  0  0  0  0  0  0
  -43.9751   59.2783   65.6728 C   0  0  0  0  0  0  0  0  0  0  0  0
  -45.3739   59.6756   65.4622 C   0  0  0  0  0  0  0  0  0  0  0  0
  -46.3932   59.4909   66.5642 C   0  0  0  0  0  0  0  0  0  0  0  0
  -47.6928   58.9249   65.9930 C   0  0  0  0  0  0  0  0  0  0  0  0
  -48.8345   59.9377   65.9783 C   0  0  0  0  0  0  0  0  0  0  0  0
  -50.1307   59.3183   65.4485 C   0  0  0  0  0  0  0  0  0  0  0  0
  -51.0096   60.2670   64.6245 C   0  0  0  0  0  0  0  0  0  0  0  0
  -51.1414   59.8130   63.1648 C   0  0  0  0  0  0  0  0  0  0  0  0
  -49.9107   60.1631   62.3244 C   0  0  0  0  0  0  0  0  0  0  0  0
  -49.6377   59.1601   61.1968 C   0  0  0  0  0  0  0  0  0  0  0  0
  -41.7645   59.3730   66.7088 C   0  0  0  0  0  0  0  0  0  0  0  0
  -41.4268   59.0236   65.2705 C   0  0  0  0  0  0  0  0  0  0  0  0
  -39.9996   59.4380   64.9244 C   0  0  0  0  0  0  0  0  0  0  0  0
  -39.1974   58.2268   64.4694 C   0  0  0  0  0  0  0  0  0  0  0  0
  -38.0782   58.6385   63.5260 C   0  0  0  0  0  0  0  0  0  0  0  0
  -37.9101   57.6261   62.3976 C   0  0  0  0  0  0  0  0  0  0  0  0
  -37.3870   58.3255   61.1581 C   0  0  0  0  0  0  0  0  0  0  0  0
  -38.0263   59.2866   60.6587 O   0  0  0  0  0  0  0  0  0  0  0  0
  -36.3150   57.9476   60.6186 O   0  0  0  0  0  0  0  0  0  0  0  0
  -35.8330   57.2324   60.9845 H   0  0  0  0  0  0  0  0  0  0  0  0
 18 19  2  0  0  0
 18 17  1  0  0  0
 18 20  1  0  0  0
 17 16  1  0  0  0
 20 21  1  0  0  0
 16 15  1  0  0  0
 15 14  1  0  0  0
 14 13  1  0  0  0
 13 12  1  0  0  0
 12  1  1  0  0  0
  1  2  1  0  0  0
  2  3  1  0  0  0
  3  4  1  0  0  0
  4  5  1  0  0  0
  5  6  1  0  0  0
  6  7  1  0  0  0
  7  8  1  0  0  0
  8  9  1  0  0  0
  9 10  1  0  0  0
 10 11  1  0  0  0
M  END
> <minimizedAffinity>
-6.57155

> <CNNscore>
0.7324008942

> <CNNaffinity>
6.3117966652

> <CNN_VS>
4.6227655411

> <CNNaffinity_variance>
0.3608727753

$$$$
/media/chris/experiments/cd1a-new-docking/inputs/ligands/4x6d_1_ligand.pdb


 21 20  0  0  0  0  0  0  0  0999 V2000
  -50.5955   58.5274   62.8754 C   0  0  0  0  0  0  0  0  0  0  0  0
  -51.1767   59.8258   63.3779 C   0  0  0  0  0  0  0  0  0  0  0  0
  -50.6381   60.4464   64.5960 C   0  0  0  0  0  0  0  0  0  0  0  0
  -49.1485   60.6589   64.7488 C   0  0  0  0  0  0  0  0  0  0  0  0
  -48.6211   59.8661   65.9442 C   0  0  0  0  0  0  0  0  0  0  0  0
  -48.1712   58.4543   65.5781 C   0  0  0  0  0  0  0  0  0  0  0  0
  -46.7922   58.4570   64.9128 C   0  0  0  0  0  0  0  0  0  0  0  0
  -45.6492   58.9666   65.7989 C   0  0  0  0  0  0  0  0  0  0  0  0
  -44.9592   60.2001   65.2016 C   0  0  0  0  0  0  0  0  0  0  0  0
  -43.4323   60.0980   65.2383 C   0  0  0  0  0  0  0  0  0  0  0  0
  -42.8483   60.2078   66.6521 C   0  0  0  0  0  0  0  0  0  0  0  0
  -50.1606   58.7473   61.4355 C   0  0  0  0  0  0  0  0  0  0  0  0
  -50.5182   57.5660   60.5513 C   0  0  0  0  0  0  0  0  0  0  0  0
  -49.6751   57.5558   59.2796 C   0  0  0  0  0  0  0  0  0  0  0  0
  -48.2530   58.0020   59.5894 C   0  0  0  0  0  0  0  0  0  0  0  0
  -47.2867   57.5233   58.5173 C   0  0  0  0  0  0  0  0  0  0  0  0
  -47.5113   56.0499   58.1930 C   0  0  0  0  0  0  0  0  0  0  0  0
  -47.7141   55.8810   56.6999 C   0  0  0  0  0  0  0  0  0  0  0  0
  -48.4262   56.6992   56.0633 O   0  0  0  0  0  0  0  0  0  0  0  0
  -47.1770   54.9211   56.0890 O   0  0  0  0  0  0  0  0  0  0  0  0
  -46.6451   54.3074   56.5562 H   0  0  0  0  0  0  0  0  0  0  0  0
 18 19  2  0  0  0
 18 17  1  0  0  0
 18 20  1  0  0  0
 17 16  1  0  0  0
 20 21  1  0  0  0
 16 15  1  0  0  0
 15 14  1  0  0  0
 14 13  1  0  0  0
 13 12  1  0  0  0
 12  1  1  0  0  0
  1  2  1  0  0  0
  2  3  1  0  0  0
  3  4  1  0  0  0
  4  5  1  0  0  0
  5  6  1  0  0  0
  6  7  1  0  0  0
  7  8  1  0  0  0
  8  9  1  0  0  0
  9 10  1  0  0  0
 10 11  1  0  0  0
M  END
> <minimizedAffinity>
-7.33909

> <CNNscore>
0.7274456620

> <CNNaffinity>
6.7335333824

> <CNN_VS>
4.8982796669

> <CNNaffinity_variance>
0.4669148326

$$$$
/media/chris/experiments/cd1a-new-docking/inputs/ligands/4x6d_1_ligand.pdb


 21 20  0  0  0  0  0  0  0  0999 V2000
  -48.2736   57.9499   64.7908 C   0  0  0  0  0  0  0  0  0  0  0  0
  -47.1104   58.2207   65.7125 C   0  0  0  0  0  0  0  0  0  0  0  0
  -45.7455   58.2790   65.1715 C   0  0  0  0  0  0  0  0  0  0  0  0
  -44.8283   57.0819   65.2856 C   0  0  0  0  0  0  0  0  0  0  0  0
  -43.5100   57.4866   65.9444 C   0  0  0  0  0  0  0  0  0  0  0  0
  -43.5319   58.9029   66.5130 C   0  0  0  0  0  0  0  0  0  0  0  0
  -42.1234   59.3927   66.8601 C   0  0  0  0  0  0  0  0  0  0  0  0
  -41.5822   60.5001   65.9479 C   0  0  0  0  0  0  0  0  0  0  0  0
  -41.3028   59.9944   64.5264 C   0  0  0  0  0  0  0  0  0  0  0  0
  -41.1891   61.1311   63.5073 C   0  0  0  0  0  0  0  0  0  0  0  0
  -42.5465   61.6261   62.9930 C   0  0  0  0  0  0  0  0  0  0  0  0
  -48.8465   59.2934   64.3694 C   0  0  0  0  0  0  0  0  0  0  0  0
  -50.3498   59.2276   64.1674 C   0  0  0  0  0  0  0  0  0  0  0  0
  -50.7372   59.6901   62.7659 C   0  0  0  0  0  0  0  0  0  0  0  0
  -49.5271   60.2797   62.0549 C   0  0  0  0  0  0  0  0  0  0  0  0
  -49.3205   59.6248   60.6982 C   0  0  0  0  0  0  0  0  0  0  0  0
  -48.7076   58.2359   60.8459 C   0  0  0  0  0  0  0  0  0  0  0  0
  -49.2484   57.3216   59.7639 C   0  0  0  0  0  0  0  0  0  0  0  0
  -50.2419   57.6743   59.0782 O   0  0  0  0  0  0  0  0  0  0  0  0
  -48.7118   56.2042   59.5478 O   0  0  0  0  0  0  0  0  0  0  0  0
  -47.9714   55.9342   60.0544 H   0  0  0  0  0  0  0  0  0  0  0  0
 18 19  2  0  0  0
 18 17  1  0  0  0
 18 20  1  0  0  0
 17 16  1  0  0  0
 20 21  1  0  0  0
 16 15  1  0  0  0
 15 14  1  0  0  0
 14 13  1  0  0  0
 13 12  1  0  0  0
 12  1  1  0  0  0
  1  2  1  0  0  0
  2  3  1  0  0  0
  3  4  1  0  0  0
  4  5  1  0  0  0
  5  6  1  0  0  0
  6  7  1  0  0  0
  7  8  1  0  0  0
  8  9  1  0  0  0
  9 10  1  0  0  0
 10 11  1  0  0  0
M  END
> <minimizedAffinity>
-6.37249

> <CNNscore>
0.6559118629

> <CNNaffinity>
6.3700942993

> <CNN_VS>
4.1782202721

> <CNNaffinity_variance>
0.8371756673

$$$$
