/media/chris/experiments/cd1a-new-docking/inputs/ligands/4x6d_1_ligand.pdb


 21 20  0  0  0  0  0  0  0  0999 V2000
  -47.4065   59.9554   66.6108 C   0  0  0  0  0  0  0  0  0  0  0  0
  -47.9927   60.6792   65.4241 C   0  0  0  0  0  0  0  0  0  0  0  0
  -49.3116   60.2894   64.9069 C   0  0  0  0  0  0  0  0  0  0  0  0
  -49.6732   58.8278   64.7642 C   0  0  0  0  0  0  0  0  0  0  0  0
  -48.8116   58.1729   63.6853 C   0  0  0  0  0  0  0  0  0  0  0  0
  -49.0804   58.7208   62.2863 C   0  0  0  0  0  0  0  0  0  0  0  0
  -50.2137   57.9611   61.5915 C   0  0  0  0  0  0  0  0  0  0  0  0
  -49.9957   57.7037   60.0956 C   0  0  0  0  0  0  0  0  0  0  0  0
  -48.6203   58.1892   59.6190 C   0  0  0  0  0  0  0  0  0  0  0  0
  -48.0384   57.3134   58.5063 C   0  0  0  0  0  0  0  0  0  0  0  0
  -46.9380   58.0093   57.6960 C   0  0  0  0  0  0  0  0  0  0  0  0
  -46.1058   59.3118   66.1580 C   0  0  0  0  0  0  0  0  0  0  0  0
  -45.3470   60.1966   65.1852 C   0  0  0  0  0  0  0  0  0  0  0  0
  -43.8464   60.1536   65.4580 C   0  0  0  0  0  0  0  0  0  0  0  0
  -43.5867   59.7255   66.8957 C   0  0  0  0  0  0  0  0  0  0  0  0
  -42.1146   59.8694   67.2488 C   0  0  0  0  0  0  0  0  0  0  0  0
  -41.2405   59.7992   66.0009 C   0  0  0  0  0  0  0  0  0  0  0  0
  -40.2689   60.9633   65.9923 C   0  0  0  0  0  0  0  0  0  0  0  0
  -39.0389   60.7575   65.8294 O   0  0  0  0  0  0  0  0  0  0  0  0
  -40.6840   62.1403   66.1522 O   0  0  0  0  0  0  0  0  0  0  0  0
  -41.5989   62.3018   66.2741 H   0  0  0  0  0  0  0  0  0  0  0  0
 18 19  2  0  0  0
 18 17  1  0  0  0
 18 20  1  0  0  0
 17 16  1  0  0  0
 20 21  1  0  0  0
 16 15  1  0  0  0
 15 14  1  0  0  0
 14 13  1  0  0  0
 13 12  1  0  0  0
 12  1  1  0  0  0
  1  2  1  0  0  0
  2  3  1  0  0  0
  3  4  1  0  0  0
  4  5  1  0  0  0
  5  6  1  0  0  0
  6  7  1  0  0  0
  7  8  1  0  0  0
  8  9  1  0  0  0
  9 10  1  0  0  0
 10 11  1  0  0  0
M  END
> <minimizedAffinity>
-6.93136

> <CNNscore>
0.9106803536

> <CNNaffinity>
6.6753816605

> <CNN_VS>
6.0791387558

> <CNNaffinity_variance>
0.3658216894

$$$$
/media/chris/experiments/cd1a-new-docking/inputs/ligands/4x6d_1_ligand.pdb


 21 20  0  0  0  0  0  0  0  0999 V2000
  -45.5892   57.5665   65.1537 C   0  0  0  0  0  0  0  0  0  0  0  0
  -46.8535   58.3870   65.0889 C   0  0  0  0  0  0  0  0  0  0  0  0
  -48.1615   57.7267   65.1991 C   0  0  0  0  0  0  0  0  0  0  0  0
  -49.3914   58.3654   64.5935 C   0  0  0  0  0  0  0  0  0  0  0  0
  -49.3437   58.2644   63.0694 C   0  0  0  0  0  0  0  0  0  0  0  0
  -50.7252   58.2944   62.4212 C   0  0  0  0  0  0  0  0  0  0  0  0
  -50.7279   57.5807   61.0667 C   0  0  0  0  0  0  0  0  0  0  0  0
  -50.0107   58.3334   59.9394 C   0  0  0  0  0  0  0  0  0  0  0  0
  -49.0569   57.4250   59.1522 C   0  0  0  0  0  0  0  0  0  0  0  0
  -47.6785   58.0572   58.9425 C   0  0  0  0  0  0  0  0  0  0  0  0
  -46.9523   57.5355   57.6966 C   0  0  0  0  0  0  0  0  0  0  0  0
  -44.4510   58.4382   64.6481 C   0  0  0  0  0  0  0  0  0  0  0  0
  -44.4498   59.8046   65.3100 C   0  0  0  0  0  0  0  0  0  0  0  0
  -43.8618   59.7341   66.7161 C   0  0  0  0  0  0  0  0  0  0  0  0
  -42.4484   60.2996   66.7227 C   0  0  0  0  0  0  0  0  0  0  0  0
  -41.4162   59.1856   66.6464 C   0  0  0  0  0  0  0  0  0  0  0  0
  -40.8217   59.0820   65.2456 C   0  0  0  0  0  0  0  0  0  0  0  0
  -39.4559   59.7400   65.2208 C   0  0  0  0  0  0  0  0  0  0  0  0
  -39.3544   60.9758   65.0107 O   0  0  0  0  0  0  0  0  0  0  0  0
  -38.4161   59.0558   65.4054 O   0  0  0  0  0  0  0  0  0  0  0  0
  -38.4834   58.1345   65.5626 H   0  0  0  0  0  0  0  0  0  0  0  0
 18 19  2  0  0  0
 18 17  1  0  0  0
 18 20  1  0  0  0
 17 16  1  0  0  0
 20 21  1  0  0  0
 16 15  1  0  0  0
 15 14  1  0  0  0
 14 13  1  0  0  0
 13 12  1  0  0  0
 12  1  1  0  0  0
  1  2  1  0  0  0
  2  3  1  0  0  0
  3  4  1  0  0  0
  4  5  1  0  0  0
  5  6  1  0  0  0
  6  7  1  0  0  0
  7  8  1  0  0  0
  8  9  1  0  0  0
  9 10  1  0  0  0
 10 11  1  0  0  0
M  END
> <minimizedAffinity>
-6.70908

> <CNNscore>
0.8647372127

> <CNNaffinity>
6.7869253159

> <CNN_VS>
5.8689069748

> <CNNaffinity_variance>
0.3083010614

$$$$
/media/chris/experiments/cd1a-new-docking/inputs/ligands/4x6d_1_ligand.pdb


 21 20  0  0  0  0  0  0  0  0999 V2000
  -47.4767   58.6796   64.4708 C   0  0  0  0  0  0  0  0  0  0  0  0
  -48.5442   58.0207   65.3087 C   0  0  0  0  0  0  0  0  0  0  0  0
  -49.8216   58.7088   65.5408 C   0  0  0  0  0  0  0  0  0  0  0  0
  -50.0961   60.0467   64.8912 C   0  0  0  0  0  0  0  0  0  0  0  0
  -51.1743   59.9023   63.8181 C   0  0  0  0  0  0  0  0  0  0  0  0
  -50.6689   59.2299   62.5444 C   0  0  0  0  0  0  0  0  0  0  0  0
  -49.6698   60.1172   61.7970 C   0  0  0  0  0  0  0  0  0  0  0  0
  -49.0727   59.4915   60.5307 C   0  0  0  0  0  0  0  0  0  0  0  0
  -49.7599   58.1711   60.1580 C   0  0  0  0  0  0  0  0  0  0  0  0
  -49.1814   57.5429   58.8874 C   0  0  0  0  0  0  0  0  0  0  0  0
  -47.6550   57.6553   58.7929 C   0  0  0  0  0  0  0  0  0  0  0  0
  -46.2666   58.9029   65.3636 C   0  0  0  0  0  0  0  0  0  0  0  0
  -45.6470   60.2712   65.1426 C   0  0  0  0  0  0  0  0  0  0  0  0
  -44.1253   60.2073   65.2345 C   0  0  0  0  0  0  0  0  0  0  0  0
  -43.7046   59.6406   66.5833 C   0  0  0  0  0  0  0  0  0  0  0  0
  -42.3642   60.2113   67.0192 C   0  0  0  0  0  0  0  0  0  0  0  0
  -41.2679   59.8677   66.0160 C   0  0  0  0  0  0  0  0  0  0  0  0
  -40.5825   61.1387   65.5537 C   0  0  0  0  0  0  0  0  0  0  0  0
  -39.9787   61.1648   64.4507 O   0  0  0  0  0  0  0  0  0  0  0  0
  -40.6087   62.1729   66.2700 O   0  0  0  0  0  0  0  0  0  0  0  0
  -41.0564   62.1614   67.0930 H   0  0  0  0  0  0  0  0  0  0  0  0
 18 19  2  0  0  0
 18 17  1  0  0  0
 18 20  1  0  0  0
 17 16  1  0  0  0
 20 21  1  0  0  0
 16 15  1  0  0  0
 15 14  1  0  0  0
 14 13  1  0  0  0
 13 12  1  0  0  0
 12  1  1  0  0  0
  1  2  1  0  0  0
  2  3  1  0  0  0
  3  4  1  0  0  0
  4  5  1  0  0  0
  5  6  1  0  0  0
  6  7  1  0  0  0
  7  8  1  0  0  0
  8  9  1  0  0  0
  9 10  1  0  0  0
 10 11  1  0  0  0
M  END
> <minimizedAffinity>
-7.09706

> <CNNscore>
0.8502845764

> <CNNaffinity>
6.5940542221

> <CNN_VS>
5.6068224907

> <CNNaffinity_variance>
0.3980592787

$$$$
/media/chris/experiments/cd1a-new-docking/inputs/ligands/4x6d_1_ligand.pdb


 21 20  0  0  0  0  0  0  0  0999 V2000
  -46.9442   58.3255   64.8113 C   0  0  0  0  0  0  0  0  0  0  0  0
  -48.1607   57.5926   65.3199 C   0  0  0  0  0  0  0  0  0  0  0  0
  -49.4244   58.3169   65.5135 C   0  0  0  0  0  0  0  0  0  0  0  0
  -49.4150   59.7975   65.8217 C   0  0  0  0  0  0  0  0  0  0  0  0
  -49.7961   60.5991   64.5777 C   0  0  0  0  0  0  0  0  0  0  0  0
  -51.1079   60.1413   63.9458 C   0  0  0  0  0  0  0  0  0  0  0  0
  -50.9244   59.7711   62.4716 C   0  0  0  0  0  0  0  0  0  0  0  0
  -50.7345   58.2736   62.2012 C   0  0  0  0  0  0  0  0  0  0  0  0
  -49.3434   57.9594   61.6348 C   0  0  0  0  0  0  0  0  0  0  0  0
  -48.9319   58.9184   60.5148 C   0  0  0  0  0  0  0  0  0  0  0  0
  -48.0740   58.2558   59.4301 C   0  0  0  0  0  0  0  0  0  0  0  0
  -45.7236   57.6921   65.4593 C   0  0  0  0  0  0  0  0  0  0  0  0
  -44.4739   57.8862   64.6192 C   0  0  0  0  0  0  0  0  0  0  0  0
  -43.2267   57.9515   65.4956 C   0  0  0  0  0  0  0  0  0  0  0  0
  -43.1439   59.3035   66.1904 C   0  0  0  0  0  0  0  0  0  0  0  0
  -41.7793   59.5037   66.8307 C   0  0  0  0  0  0  0  0  0  0  0  0
  -40.6889   59.6334   65.7721 C   0  0  0  0  0  0  0  0  0  0  0  0
  -40.5875   61.0765   65.3180 C   0  0  0  0  0  0  0  0  0  0  0  0
  -40.5957   61.3541   64.0914 O   0  0  0  0  0  0  0  0  0  0  0  0
  -40.4902   62.0043   66.1623 O   0  0  0  0  0  0  0  0  0  0  0  0
  -40.4835   61.8056   67.0780 H   0  0  0  0  0  0  0  0  0  0  0  0
 18 19  2  0  0  0
 18 17  1  0  0  0
 18 20  1  0  0  0
 17 16  1  0  0  0
 20 21  1  0  0  0
 16 15  1  0  0  0
 15 14  1  0  0  0
 14 13  1  0  0  0
 13 12  1  0  0  0
 12  1  1  0  0  0
  1  2  1  0  0  0
  2  3  1  0  0  0
  3  4  1  0  0  0
  4  5  1  0  0  0
  5  6  1  0  0  0
  6  7  1  0  0  0
  7  8  1  0  0  0
  8  9  1  0  0  0
  9 10  1  0  0  0
 10 11  1  0  0  0
M  END
> <minimizedAffinity>
-6.80942

> <CNNscore>
0.8224976659

> <CNNaffinity>
6.6239829063

> <CNN_VS>
5.4482107162

> <CNNaffinity_variance>
0.3187518716

$$$$
/media/chris/experiments/cd1a-new-docking/inputs/ligands/4x6d_1_ligand.pdb


 21 20  0  0  0  0  0  0  0  0999 V2000
  -44.9807   60.1181   65.2867 C   0  0  0  0  0  0  0  0  0  0  0  0
  -46.4312   59.7383   65.1203 C   0  0  0  0  0  0  0  0  0  0  0  0
  -47.4844   60.6330   65.6195 C   0  0  0  0  0  0  0  0  0  0  0  0
  -48.6518   61.0055   64.7330 C   0  0  0  0  0  0  0  0  0  0  0  0
  -49.8203   60.0489   64.9676 C   0  0  0  0  0  0  0  0  0  0  0  0
  -51.0279   60.3463   64.0828 C   0  0  0  0  0  0  0  0  0  0  0  0
  -51.0828   59.4118   62.8713 C   0  0  0  0  0  0  0  0  0  0  0  0
  -50.0673   59.7275   61.7664 C   0  0  0  0  0  0  0  0  0  0  0  0
  -48.9935   58.6387   61.6387 C   0  0  0  0  0  0  0  0  0  0  0  0
  -48.7073   58.2600   60.1833 C   0  0  0  0  0  0  0  0  0  0  0  0
  -49.9307   57.6993   59.4479 C   0  0  0  0  0  0  0  0  0  0  0  0
  -44.1420   58.9458   64.8036 C   0  0  0  0  0  0  0  0  0  0  0  0
  -42.6583   59.2674   64.8233 C   0  0  0  0  0  0  0  0  0  0  0  0
  -42.3292   60.2795   65.9165 C   0  0  0  0  0  0  0  0  0  0  0  0
  -40.8893   60.7533   65.7766 C   0  0  0  0  0  0  0  0  0  0  0  0
  -40.1322   59.9033   64.7684 C   0  0  0  0  0  0  0  0  0  0  0  0
  -38.8523   59.3388   65.3762 C   0  0  0  0  0  0  0  0  0  0  0  0
  -37.7982   60.4264   65.4475 C   0  0  0  0  0  0  0  0  0  0  0  0
  -37.1619   60.7572   64.4143 O   0  0  0  0  0  0  0  0  0  0  0  0
  -37.5497   61.0017   66.5386 O   0  0  0  0  0  0  0  0  0  0  0  0
  -38.0195   60.7609   67.3127 H   0  0  0  0  0  0  0  0  0  0  0  0
 18 19  2  0  0  0
 18 17  1  0  0  0
 18 20  1  0  0  0
 17 16  1  0  0  0
 20 21  1  0  0  0
 16 15  1  0  0  0
 15 14  1  0  0  0
 14 13  1  0  0  0
 13 12  1  0  0  0
 12  1  1  0  0  0
  1  2  1  0  0  0
  2  3  1  0  0  0
  3  4  1  0  0  0
  4  5  1  0  0  0
  5  6  1  0  0  0
  6  7  1  0  0  0
  7  8  1  0  0  0
  8  9  1  0  0  0
  9 10  1  0  0  0
 10 11  1  0  0  0
M  END
> <minimizedAffinity>
-6.41405

> <CNNscore>
0.7775718570

> <CNNaffinity>
6.3635416031

> <CNN_VS>
4.9481110573

> <CNNaffinity_variance>
0.5446809530

$$$$
/media/chris/experiments/cd1a-new-docking/inputs/ligands/4x6d_1_ligand.pdb


 21 20  0  0  0  0  0  0  0  0999 V2000
  -43.8079   59.7970   64.9438 C   0  0  0  0  0  0  0  0  0  0  0  0
  -44.0891   58.3205   64.8151 C   0  0  0  0  0  0  0  0  0  0  0  0
  -45.4371   57.8049   65.0909 C   0  0  0  0  0  0  0  0  0  0  0  0
  -46.6556   58.5572   64.6043 C   0  0  0  0  0  0  0  0  0  0  0  0
  -47.9294   57.8053   64.9878 C   0  0  0  0  0  0  0  0  0  0  0  0
  -49.1874   58.3895   64.3508 C   0  0  0  0  0  0  0  0  0  0  0  0
  -48.9814   58.6826   62.8623 C   0  0  0  0  0  0  0  0  0  0  0  0
  -49.9179   57.9183   61.9186 C   0  0  0  0  0  0  0  0  0  0  0  0
  -49.5538   58.1323   60.4433 C   0  0  0  0  0  0  0  0  0  0  0  0
  -48.1021   57.7579   60.1335 C   0  0  0  0  0  0  0  0  0  0  0  0
  -47.6916   58.0567   58.6865 C   0  0  0  0  0  0  0  0  0  0  0  0
  -43.0527   60.0076   66.2462 C   0  0  0  0  0  0  0  0  0  0  0  0
  -41.9209   59.0090   66.4101 C   0  0  0  0  0  0  0  0  0  0  0  0
  -40.6036   59.5811   65.8951 C   0  0  0  0  0  0  0  0  0  0  0  0
  -40.0164   58.6678   64.8281 C   0  0  0  0  0  0  0  0  0  0  0  0
  -38.5015   58.6019   64.9416 C   0  0  0  0  0  0  0  0  0  0  0  0
  -37.9069   59.9871   65.1742 C   0  0  0  0  0  0  0  0  0  0  0  0
  -36.8862   60.2921   64.0952 C   0  0  0  0  0  0  0  0  0  0  0  0
  -35.9671   59.4707   63.8456 O   0  0  0  0  0  0  0  0  0  0  0  0
  -36.9481   61.3683   63.4462 O   0  0  0  0  0  0  0  0  0  0  0  0
  -37.6299   61.9853   63.6262 H   0  0  0  0  0  0  0  0  0  0  0  0
 18 19  2  0  0  0
 18 17  1  0  0  0
 18 20  1  0  0  0
 17 16  1  0  0  0
 20 21  1  0  0  0
 16 15  1  0  0  0
 15 14  1  0  0  0
 14 13  1  0  0  0
 13 12  1  0  0  0
 12  1  1  0  0  0
  1  2  1  0  0  0
  2  3  1  0  0  0
  3  4  1  0  0  0
  4  5  1  0  0  0
  5  6  1  0  0  0
  6  7  1  0  0  0
  7  8  1  0  0  0
  8  9  1  0  0  0
  9 10  1  0  0  0
 10 11  1  0  0  0
M  END
> <minimizedAffinity>
-6.38098

> <CNNscore>
0.7644190192

> <CNNaffinity>
6.6254920959

> <CNN_VS>
5.0646519661

> <CNNaffinity_variance>
0.5918774605

$$$$
/media/chris/experiments/cd1a-new-docking/inputs/ligands/4x6d_1_ligand.pdb


 21 20  0  0  0  0  0  0  0  0999 V2000
  -48.2465   58.2752   64.8952 C   0  0  0  0  0  0  0  0  0  0  0  0
  -49.6299   58.3171   65.4956 C   0  0  0  0  0  0  0  0  0  0  0  0
  -50.3935   59.5724   65.4886 C   0  0  0  0  0  0  0  0  0  0  0  0
  -50.2823   60.5260   64.3200 C   0  0  0  0  0  0  0  0  0  0  0  0
  -50.8296   59.8736   63.0511 C   0  0  0  0  0  0  0  0  0  0  0  0
  -49.9854   60.1646   61.8132 C   0  0  0  0  0  0  0  0  0  0  0  0
  -49.0006   59.0289   61.5229 C   0  0  0  0  0  0  0  0  0  0  0  0
  -48.9005   58.6231   60.0475 C   0  0  0  0  0  0  0  0  0  0  0  0
  -48.4955   57.1528   59.8777 C   0  0  0  0  0  0  0  0  0  0  0  0
  -47.3908   56.9616   58.8352 C   0  0  0  0  0  0  0  0  0  0  0  0
  -47.1499   58.2034   57.9683 C   0  0  0  0  0  0  0  0  0  0  0  0
  -47.2560   58.1178   66.0377 C   0  0  0  0  0  0  0  0  0  0  0  0
  -46.3455   56.9200   65.8343 C   0  0  0  0  0  0  0  0  0  0  0  0
  -45.0366   57.3311   65.1667 C   0  0  0  0  0  0  0  0  0  0  0  0
  -43.9641   57.5731   66.2197 C   0  0  0  0  0  0  0  0  0  0  0  0
  -43.6576   59.0565   66.3534 C   0  0  0  0  0  0  0  0  0  0  0  0
  -43.9829   59.8035   65.0640 C   0  0  0  0  0  0  0  0  0  0  0  0
  -42.6969   60.1958   64.3631 C   0  0  0  0  0  0  0  0  0  0  0  0
  -42.7356   60.8937   63.3176 O   0  0  0  0  0  0  0  0  0  0  0  0
  -41.5845   59.8235   64.8184 O   0  0  0  0  0  0  0  0  0  0  0  0
  -41.5473   59.3034   65.5970 H   0  0  0  0  0  0  0  0  0  0  0  0
 18 19  2  0  0  0
 18 17  1  0  0  0
 18 20  1  0  0  0
 17 16  1  0  0  0
 20 21  1  0  0  0
 16 15  1  0  0  0
 15 14  1  0  0  0
 14 13  1  0  0  0
 13 12  1  0  0  0
 12  1  1  0  0  0
  1  2  1  0  0  0
  2  3  1  0  0  0
  3  4  1  0  0  0
  4  5  1  0  0  0
  5  6  1  0  0  0
  6  7  1  0  0  0
  7  8  1  0  0  0
  8  9  1  0  0  0
  9 10  1  0  0  0
 10 11  1  0  0  0
M  END
> <minimizedAffinity>
-6.68964

> <CNNscore>
0.7594013810

> <CNNaffinity>
6.6805305481

> <CNN_VS>
5.0732040405

> <CNNaffinity_variance>
0.9106802940

$$$$
/media/chris/experiments/cd1a-new-docking/inputs/ligands/4x6d_1_ligand.pdb


 21 20  0  0  0  0  0  0  0  0999 V2000
  -42.7314   57.8526   65.9552 C   0  0  0  0  0  0  0  0  0  0  0  0
  -44.1129   57.5746   66.4938 C   0  0  0  0  0  0  0  0  0  0  0  0
  -45.2738   58.2764   65.9294 C   0  0  0  0  0  0  0  0  0  0  0  0
  -46.6749   57.8957   66.3529 C   0  0  0  0  0  0  0  0  0  0  0  0
  -47.5849   57.7835   65.1304 C   0  0  0  0  0  0  0  0  0  0  0  0
  -49.0366   58.1507   65.4255 C   0  0  0  0  0  0  0  0  0  0  0  0
  -49.3168   59.6259   65.1264 C   0  0  0  0  0  0  0  0  0  0  0  0
  -50.7884   59.9608   64.8542 C   0  0  0  0  0  0  0  0  0  0  0  0
  -51.1057   59.9976   63.3534 C   0  0  0  0  0  0  0  0  0  0  0  0
  -49.8666   60.2639   62.4946 C   0  0  0  0  0  0  0  0  0  0  0  0
  -49.5839   59.1558   61.4730 C   0  0  0  0  0  0  0  0  0  0  0  0
  -42.1185   58.9496   66.8108 C   0  0  0  0  0  0  0  0  0  0  0  0
  -41.5772   60.0886   65.9653 C   0  0  0  0  0  0  0  0  0  0  0  0
  -41.8814   59.8687   64.4865 C   0  0  0  0  0  0  0  0  0  0  0  0
  -42.7571   60.9961   63.9577 C   0  0  0  0  0  0  0  0  0  0  0  0
  -41.9251   62.0273   63.2114 C   0  0  0  0  0  0  0  0  0  0  0  0
  -42.2199   61.9930   61.7153 C   0  0  0  0  0  0  0  0  0  0  0  0
  -41.0689   61.3306   60.9834 C   0  0  0  0  0  0  0  0  0  0  0  0
  -40.1441   60.7769   61.6315 O   0  0  0  0  0  0  0  0  0  0  0  0
  -41.0281   61.3336   59.7258 O   0  0  0  0  0  0  0  0  0  0  0  0
  -41.7134   61.7440   59.2359 H   0  0  0  0  0  0  0  0  0  0  0  0
 18 19  2  0  0  0
 18 17  1  0  0  0
 18 20  1  0  0  0
 17 16  1  0  0  0
 20 21  1  0  0  0
 16 15  1  0  0  0
 15 14  1  0  0  0
 14 13  1  0  0  0
 13 12  1  0  0  0
 12  1  1  0  0  0
  1  2  1  0  0  0
  2  3  1  0  0  0
  3  4  1  0  0  0
  4  5  1  0  0  0
  5  6  1  0  0  0
  6  7  1  0  0  0
  7  8  1  0  0  0
  8  9  1  0  0  0
  9 10  1  0  0  0
 10 11  1  0  0  0
M  END
> <minimizedAffinity>
-6.64537

> <CNNscore>
0.7360521555

> <CNNaffinity>
6.3843822479

> <CNN_VS>
4.6992383003

> <CNNaffinity_variance>
0.4717060626

$$$$
/media/chris/experiments/cd1a-new-docking/inputs/ligands/4x6d_1_ligand.pdb


 21 20  0  0  0  0  0  0  0  0999 V2000
  -45.3838   58.1202   64.6865 C   0  0  0  0  0  0  0  0  0  0  0  0
  -46.8658   58.3941   64.6192 C   0  0  0  0  0  0  0  0  0  0  0  0
  -47.6271   58.6124   65.8569 C   0  0  0  0  0  0  0  0  0  0  0  0
  -48.9157   59.4038   65.8299 C   0  0  0  0  0  0  0  0  0  0  0  0
  -49.8322   58.8843   64.7230 C   0  0  0  0  0  0  0  0  0  0  0  0
  -50.9090   59.8859   64.3143 C   0  0  0  0  0  0  0  0  0  0  0  0
  -50.9001   60.1383   62.8043 C   0  0  0  0  0  0  0  0  0  0  0  0
  -49.5065   60.1852   62.1661 C   0  0  0  0  0  0  0  0  0  0  0  0
  -49.4481   59.4065   60.8452 C   0  0  0  0  0  0  0  0  0  0  0  0
  -48.6062   58.1321   60.9481 C   0  0  0  0  0  0  0  0  0  0  0  0
  -47.9021   57.7597   59.6377 C   0  0  0  0  0  0  0  0  0  0  0  0
  -44.7929   59.0515   65.7326 C   0  0  0  0  0  0  0  0  0  0  0  0
  -44.2621   60.3319   65.1129 C   0  0  0  0  0  0  0  0  0  0  0  0
  -43.0208   60.0608   64.2682 C   0  0  0  0  0  0  0  0  0  0  0  0
  -42.7403   61.2445   63.3530 C   0  0  0  0  0  0  0  0  0  0  0  0
  -41.3109   61.2056   62.8355 C   0  0  0  0  0  0  0  0  0  0  0  0
  -40.3275   60.8965   63.9597 C   0  0  0  0  0  0  0  0  0  0  0  0
  -39.0018   60.4550   63.3710 C   0  0  0  0  0  0  0  0  0  0  0  0
  -37.9344   61.0160   63.7287 O   0  0  0  0  0  0  0  0  0  0  0  0
  -38.9598   59.5297   62.5194 O   0  0  0  0  0  0  0  0  0  0  0  0
  -39.7507   59.1069   62.2478 H   0  0  0  0  0  0  0  0  0  0  0  0
 18 19  2  0  0  0
 18 17  1  0  0  0
 18 20  1  0  0  0
 17 16  1  0  0  0
 20 21  1  0  0  0
 16 15  1  0  0  0
 15 14  1  0  0  0
 14 13  1  0  0  0
 13 12  1  0  0  0
 12  1  1  0  0  0
  1  2  1  0  0  0
  2  3  1  0  0  0
  3  4  1  0  0  0
  4  5  1  0  0  0
  5  6  1  0  0  0
  6  7  1  0  0  0
  7  8  1  0  0  0
  8  9  1  0  0  0
  9 10  1  0  0  0
 10 11  1  0  0  0
M  END
> <minimizedAffinity>
-6.44707

> <CNNscore>
0.6908639669

> <CNNaffinity>
6.5444440842

> <CNN_VS>
4.5213208199

> <CNNaffinity_variance>
0.4629576802

$$$$
