/media/chris/experiments/cd1a-new-docking/inputs/ligands/4x6d_1_ligand.pdb


 21 20  0  0  0  0  0  0  0  0999 V2000
  -46.3635   58.6707   65.0449 C   0  0  0  0  0  0  0  0  0  0  0  0
  -47.6373   58.9874   64.3013 C   0  0  0  0  0  0  0  0  0  0  0  0
  -48.8847   58.2982   64.6589 C   0  0  0  0  0  0  0  0  0  0  0  0
  -50.2213   58.9544   64.3938 C   0  0  0  0  0  0  0  0  0  0  0  0
  -50.5869   58.8312   62.9151 C   0  0  0  0  0  0  0  0  0  0  0  0
  -50.2065   60.0623   62.0971 C   0  0  0  0  0  0  0  0  0  0  0  0
  -49.3338   59.6925   60.8947 C   0  0  0  0  0  0  0  0  0  0  0  0
  -48.8559   58.2356   60.8680 C   0  0  0  0  0  0  0  0  0  0  0  0
  -48.7848   57.6757   59.4411 C   0  0  0  0  0  0  0  0  0  0  0  0
  -47.3485   57.4116   58.9816 C   0  0  0  0  0  0  0  0  0  0  0  0
  -47.0034   58.0820   57.6462 C   0  0  0  0  0  0  0  0  0  0  0  0
  -45.6667   59.9888   65.3418 C   0  0  0  0  0  0  0  0  0  0  0  0
  -44.1775   59.8012   65.5699 C   0  0  0  0  0  0  0  0  0  0  0  0
  -43.7274   58.4065   65.1454 C   0  0  0  0  0  0  0  0  0  0  0  0
  -42.3343   58.1174   65.6868 C   0  0  0  0  0  0  0  0  0  0  0  0
  -41.6545   59.3961   66.1503 C   0  0  0  0  0  0  0  0  0  0  0  0
  -40.2741   59.5449   65.5188 C   0  0  0  0  0  0  0  0  0  0  0  0
  -39.6474   60.8521   65.9636 C   0  0  0  0  0  0  0  0  0  0  0  0
  -40.3616   61.8768   66.1096 O   0  0  0  0  0  0  0  0  0  0  0  0
  -38.4108   60.9224   66.1849 O   0  0  0  0  0  0  0  0  0  0  0  0
  -37.8719   60.1633   66.0784 H   0  0  0  0  0  0  0  0  0  0  0  0
 18 19  2  0  0  0
 18 17  1  0  0  0
 18 20  1  0  0  0
 17 16  1  0  0  0
 20 21  1  0  0  0
 16 15  1  0  0  0
 15 14  1  0  0  0
 14 13  1  0  0  0
 13 12  1  0  0  0
 12  1  1  0  0  0
  1  2  1  0  0  0
  2  3  1  0  0  0
  3  4  1  0  0  0
  4  5  1  0  0  0
  5  6  1  0  0  0
  6  7  1  0  0  0
  7  8  1  0  0  0
  8  9  1  0  0  0
  9 10  1  0  0  0
 10 11  1  0  0  0
M  END
> <minimizedAffinity>
-7.03750

> <CNNscore>
0.9225568175

> <CNNaffinity>
6.9539666176

> <CNN_VS>
6.4154291153

> <CNNaffinity_variance>
0.6047443748

$$$$
/media/chris/experiments/cd1a-new-docking/inputs/ligands/4x6d_1_ligand.pdb


 21 20  0  0  0  0  0  0  0  0999 V2000
  -46.6373   60.5885   65.0332 C   0  0  0  0  0  0  0  0  0  0  0  0
  -48.0905   60.9404   65.2341 C   0  0  0  0  0  0  0  0  0  0  0  0
  -48.9911   59.9846   65.8931 C   0  0  0  0  0  0  0  0  0  0  0  0
  -50.3666   59.7166   65.3243 C   0  0  0  0  0  0  0  0  0  0  0  0
  -50.5800   60.5320   64.0496 C   0  0  0  0  0  0  0  0  0  0  0  0
  -51.1779   59.7159   62.9068 C   0  0  0  0  0  0  0  0  0  0  0  0
  -50.2818   58.5329   62.5300 C   0  0  0  0  0  0  0  0  0  0  0  0
  -50.8811   57.5734   61.4948 C   0  0  0  0  0  0  0  0  0  0  0  0
  -49.8398   57.1024   60.4709 C   0  0  0  0  0  0  0  0  0  0  0  0
  -49.0951   58.2648   59.8091 C   0  0  0  0  0  0  0  0  0  0  0  0
  -47.7757   57.8459   59.1493 C   0  0  0  0  0  0  0  0  0  0  0  0
  -46.5036   59.0832   65.1981 C   0  0  0  0  0  0  0  0  0  0  0  0
  -45.2233   58.7062   65.9217 C   0  0  0  0  0  0  0  0  0  0  0  0
  -44.0054   59.3289   65.2456 C   0  0  0  0  0  0  0  0  0  0  0  0
  -42.7570   58.5180   65.5636 C   0  0  0  0  0  0  0  0  0  0  0  0
  -42.1151   58.9922   66.8579 C   0  0  0  0  0  0  0  0  0  0  0  0
  -42.0714   60.5155   66.9240 C   0  0  0  0  0  0  0  0  0  0  0  0
  -40.8173   61.0205   66.2375 C   0  0  0  0  0  0  0  0  0  0  0  0
  -40.7430   62.2179   65.8603 O   0  0  0  0  0  0  0  0  0  0  0  0
  -39.8460   60.2463   66.0363 O   0  0  0  0  0  0  0  0  0  0  0  0
  -39.8936   59.3529   66.3143 H   0  0  0  0  0  0  0  0  0  0  0  0
 18 19  2  0  0  0
 18 17  1  0  0  0
 18 20  1  0  0  0
 17 16  1  0  0  0
 20 21  1  0  0  0
 16 15  1  0  0  0
 15 14  1  0  0  0
 14 13  1  0  0  0
 13 12  1  0  0  0
 12  1  1  0  0  0
  1  2  1  0  0  0
  2  3  1  0  0  0
  3  4  1  0  0  0
  4  5  1  0  0  0
  5  6  1  0  0  0
  6  7  1  0  0  0
  7  8  1  0  0  0
  8  9  1  0  0  0
  9 10  1  0  0  0
 10 11  1  0  0  0
M  END
> <minimizedAffinity>
-6.97572

> <CNNscore>
0.8830085397

> <CNNaffinity>
6.6703920364

> <CNN_VS>
5.8900132179

> <CNNaffinity_variance>
0.5724145174

$$$$
/media/chris/experiments/cd1a-new-docking/inputs/ligands/4x6d_1_ligand.pdb


 21 20  0  0  0  0  0  0  0  0999 V2000
  -46.4446   58.2218   64.6797 C   0  0  0  0  0  0  0  0  0  0  0  0
  -46.6127   59.5434   65.3875 C   0  0  0  0  0  0  0  0  0  0  0  0
  -47.9184   60.2173   65.3800 C   0  0  0  0  0  0  0  0  0  0  0  0
  -48.1858   61.3509   64.4152 C   0  0  0  0  0  0  0  0  0  0  0  0
  -49.1462   60.8955   63.3172 C   0  0  0  0  0  0  0  0  0  0  0  0
  -50.5053   60.4531   63.8528 C   0  0  0  0  0  0  0  0  0  0  0  0
  -51.1548   59.4050   62.9451 C   0  0  0  0  0  0  0  0  0  0  0  0
  -50.2207   58.2768   62.4910 C   0  0  0  0  0  0  0  0  0  0  0  0
  -50.7288   57.5800   61.2218 C   0  0  0  0  0  0  0  0  0  0  0  0
  -50.0202   58.0693   59.9559 C   0  0  0  0  0  0  0  0  0  0  0  0
  -48.4917   57.9790   60.0402 C   0  0  0  0  0  0  0  0  0  0  0  0
  -45.5441   57.3518   65.5418 C   0  0  0  0  0  0  0  0  0  0  0  0
  -44.5724   58.1828   66.3606 C   0  0  0  0  0  0  0  0  0  0  0  0
  -43.1706   57.5812   66.3276 C   0  0  0  0  0  0  0  0  0  0  0  0
  -42.1257   58.6876   66.2892 C   0  0  0  0  0  0  0  0  0  0  0  0
  -41.9857   59.2553   64.8855 C   0  0  0  0  0  0  0  0  0  0  0  0
  -42.1296   60.7738   64.8897 C   0  0  0  0  0  0  0  0  0  0  0  0
  -40.7687   61.4150   65.0795 C   0  0  0  0  0  0  0  0  0  0  0  0
  -39.9141   61.3660   64.1582 O   0  0  0  0  0  0  0  0  0  0  0  0
  -40.4833   61.9951   66.1590 O   0  0  0  0  0  0  0  0  0  0  0  0
  -41.1146   62.0358   66.8501 H   0  0  0  0  0  0  0  0  0  0  0  0
 18 19  2  0  0  0
 18 17  1  0  0  0
 18 20  1  0  0  0
 17 16  1  0  0  0
 20 21  1  0  0  0
 16 15  1  0  0  0
 15 14  1  0  0  0
 14 13  1  0  0  0
 13 12  1  0  0  0
 12  1  1  0  0  0
  1  2  1  0  0  0
  2  3  1  0  0  0
  3  4  1  0  0  0
  4  5  1  0  0  0
  5  6  1  0  0  0
  6  7  1  0  0  0
  7  8  1  0  0  0
  8  9  1  0  0  0
  9 10  1  0  0  0
 10 11  1  0  0  0
M  END
> <minimizedAffinity>
-6.78614

> <CNNscore>
0.8251389265

> <CNNaffinity>
6.6151871681

> <CNN_VS>
5.4584484100

> <CNNaffinity_variance>
0.6392796040

$$$$
/media/chris/experiments/cd1a-new-docking/inputs/ligands/4x6d_1_ligand.pdb


 21 20  0  0  0  0  0  0  0  0999 V2000
  -45.0161   57.9460   64.9826 C   0  0  0  0  0  0  0  0  0  0  0  0
  -46.1768   57.0928   65.4306 C   0  0  0  0  0  0  0  0  0  0  0  0
  -47.4225   57.7288   65.8806 C   0  0  0  0  0  0  0  0  0  0  0  0
  -48.2298   58.5827   64.9284 C   0  0  0  0  0  0  0  0  0  0  0  0
  -49.7202   58.4626   65.2443 C   0  0  0  0  0  0  0  0  0  0  0  0
  -50.4134   59.8139   65.3961 C   0  0  0  0  0  0  0  0  0  0  0  0
  -51.1737   60.2033   64.1255 C   0  0  0  0  0  0  0  0  0  0  0  0
  -50.8946   59.3134   62.9082 C   0  0  0  0  0  0  0  0  0  0  0  0
  -49.9802   60.0011   61.8857 C   0  0  0  0  0  0  0  0  0  0  0  0
  -49.5460   59.0624   60.7569 C   0  0  0  0  0  0  0  0  0  0  0  0
  -50.2993   57.7267   60.7520 C   0  0  0  0  0  0  0  0  0  0  0  0
  -43.7397   57.1764   65.2820 C   0  0  0  0  0  0  0  0  0  0  0  0
  -43.0672   57.6703   66.5504 C   0  0  0  0  0  0  0  0  0  0  0  0
  -42.1260   58.8347   66.2566 C   0  0  0  0  0  0  0  0  0  0  0  0
  -41.0321   58.3948   65.2936 C   0  0  0  0  0  0  0  0  0  0  0  0
  -40.2422   59.5903   64.7846 C   0  0  0  0  0  0  0  0  0  0  0  0
  -41.1043   60.4805   63.8953 C   0  0  0  0  0  0  0  0  0  0  0  0
  -41.1551   61.8820   64.4719 C   0  0  0  0  0  0  0  0  0  0  0  0
  -40.7508   62.0976   65.6430 O   0  0  0  0  0  0  0  0  0  0  0  0
  -41.6053   62.8364   63.7866 O   0  0  0  0  0  0  0  0  0  0  0  0
  -41.9085   62.6839   62.9132 H   0  0  0  0  0  0  0  0  0  0  0  0
 18 19  2  0  0  0
 18 17  1  0  0  0
 18 20  1  0  0  0
 17 16  1  0  0  0
 20 21  1  0  0  0
 16 15  1  0  0  0
 15 14  1  0  0  0
 14 13  1  0  0  0
 13 12  1  0  0  0
 12  1  1  0  0  0
  1  2  1  0  0  0
  2  3  1  0  0  0
  3  4  1  0  0  0
  4  5  1  0  0  0
  5  6  1  0  0  0
  6  7  1  0  0  0
  7  8  1  0  0  0
  8  9  1  0  0  0
  9 10  1  0  0  0
 10 11  1  0  0  0
M  END
> <minimizedAffinity>
-6.66452

> <CNNscore>
0.7966153026

> <CNNaffinity>
6.5334100723

> <CNN_VS>
5.2046146393

> <CNNaffinity_variance>
0.3312442005

$$$$
/media/chris/experiments/cd1a-new-docking/inputs/ligands/4x6d_1_ligand.pdb


 21 20  0  0  0  0  0  0  0  0999 V2000
  -47.4663   59.1060   64.6288 C   0  0  0  0  0  0  0  0  0  0  0  0
  -48.4267   58.2568   65.4240 C   0  0  0  0  0  0  0  0  0  0  0  0
  -49.8747   58.4659   65.2880 C   0  0  0  0  0  0  0  0  0  0  0  0
  -50.4709   59.8382   65.5091 C   0  0  0  0  0  0  0  0  0  0  0  0
  -51.1386   60.3373   64.2284 C   0  0  0  0  0  0  0  0  0  0  0  0
  -51.0012   59.3646   63.0602 C   0  0  0  0  0  0  0  0  0  0  0  0
  -50.0584   59.9072   61.9829 C   0  0  0  0  0  0  0  0  0  0  0  0
  -49.1815   58.8501   61.3008 C   0  0  0  0  0  0  0  0  0  0  0  0
  -50.0056   57.8783   60.4457 C   0  0  0  0  0  0  0  0  0  0  0  0
  -49.3255   57.5390   59.1168 C   0  0  0  0  0  0  0  0  0  0  0  0
  -47.8767   58.0343   59.0302 C   0  0  0  0  0  0  0  0  0  0  0  0
  -46.6255   59.8958   65.6188 C   0  0  0  0  0  0  0  0  0  0  0  0
  -45.6476   59.0057   66.3649 C   0  0  0  0  0  0  0  0  0  0  0  0
  -44.2254   59.5500   66.2699 C   0  0  0  0  0  0  0  0  0  0  0  0
  -44.0775   60.4170   65.0273 C   0  0  0  0  0  0  0  0  0  0  0  0
  -42.8496   60.0143   64.2259 C   0  0  0  0  0  0  0  0  0  0  0  0
  -41.9209   61.2045   64.0077 C   0  0  0  0  0  0  0  0  0  0  0  0
  -40.8698   61.2389   65.1000 C   0  0  0  0  0  0  0  0  0  0  0  0
  -40.0239   60.3129   65.1911 O   0  0  0  0  0  0  0  0  0  0  0  0
  -40.8391   62.1892   65.9241 O   0  0  0  0  0  0  0  0  0  0  0  0
  -41.4659   62.8829   65.8629 H   0  0  0  0  0  0  0  0  0  0  0  0
 18 19  2  0  0  0
 18 17  1  0  0  0
 18 20  1  0  0  0
 17 16  1  0  0  0
 20 21  1  0  0  0
 16 15  1  0  0  0
 15 14  1  0  0  0
 14 13  1  0  0  0
 13 12  1  0  0  0
 12  1  1  0  0  0
  1  2  1  0  0  0
  2  3  1  0  0  0
  3  4  1  0  0  0
  4  5  1  0  0  0
  5  6  1  0  0  0
  6  7  1  0  0  0
  7  8  1  0  0  0
  8  9  1  0  0  0
  9 10  1  0  0  0
 10 11  1  0  0  0
M  END
> <minimizedAffinity>
-6.87940

> <CNNscore>
0.7946165800

> <CNNaffinity>
6.6033124924

> <CNN_VS>
5.2471017838

> <CNNaffinity_variance>
0.4390674531

$$$$
/media/chris/experiments/cd1a-new-docking/inputs/ligands/4x6d_1_ligand.pdb


 21 20  0  0  0  0  0  0  0  0999 V2000
  -45.2958   60.3227   65.1152 C   0  0  0  0  0  0  0  0  0  0  0  0
  -46.4121   59.9272   66.0497 C   0  0  0  0  0  0  0  0  0  0  0  0
  -47.7818   60.3932   65.7931 C   0  0  0  0  0  0  0  0  0  0  0  0
  -48.3871   60.2584   64.4137 C   0  0  0  0  0  0  0  0  0  0  0  0
  -49.0166   58.8762   64.2452 C   0  0  0  0  0  0  0  0  0  0  0  0
  -49.0372   58.3975   62.7960 C   0  0  0  0  0  0  0  0  0  0  0  0
  -49.1577   59.5687   61.8172 C   0  0  0  0  0  0  0  0  0  0  0  0
  -49.0381   59.1873   60.3367 C   0  0  0  0  0  0  0  0  0  0  0  0
  -48.1758   57.9351   60.1292 C   0  0  0  0  0  0  0  0  0  0  0  0
  -48.1939   57.4394   58.6809 C   0  0  0  0  0  0  0  0  0  0  0  0
  -47.1199   58.0904   57.8009 C   0  0  0  0  0  0  0  0  0  0  0  0
  -44.1026   59.4332   65.4247 C   0  0  0  0  0  0  0  0  0  0  0  0
  -43.7524   59.4524   66.9019 C   0  0  0  0  0  0  0  0  0  0  0  0
  -42.2407   59.4547   67.1089 C   0  0  0  0  0  0  0  0  0  0  0  0
  -41.6196   60.6653   66.4262 C   0  0  0  0  0  0  0  0  0  0  0  0
  -40.2150   60.3518   65.9350 C   0  0  0  0  0  0  0  0  0  0  0  0
  -40.1850   59.0412   65.1553 C   0  0  0  0  0  0  0  0  0  0  0  0
  -38.8355   58.8777   64.4835 C   0  0  0  0  0  0  0  0  0  0  0  0
  -38.6534   57.9539   63.6499 O   0  0  0  0  0  0  0  0  0  0  0  0
  -37.8890   59.6601   64.7577 O   0  0  0  0  0  0  0  0  0  0  0  0
  -38.0167   60.3509   65.3776 H   0  0  0  0  0  0  0  0  0  0  0  0
 18 19  2  0  0  0
 18 17  1  0  0  0
 18 20  1  0  0  0
 17 16  1  0  0  0
 20 21  1  0  0  0
 16 15  1  0  0  0
 15 14  1  0  0  0
 14 13  1  0  0  0
 13 12  1  0  0  0
 12  1  1  0  0  0
  1  2  1  0  0  0
  2  3  1  0  0  0
  3  4  1  0  0  0
  4  5  1  0  0  0
  5  6  1  0  0  0
  6  7  1  0  0  0
  7  8  1  0  0  0
  8  9  1  0  0  0
  9 10  1  0  0  0
 10 11  1  0  0  0
M  END
> <minimizedAffinity>
-6.38034

> <CNNscore>
0.7294428349

> <CNNaffinity>
6.4481682777

> <CNN_VS>
4.7035703659

> <CNNaffinity_variance>
0.4763057232

$$$$
/media/chris/experiments/cd1a-new-docking/inputs/ligands/4x6d_1_ligand.pdb


 21 20  0  0  0  0  0  0  0  0999 V2000
  -48.2365   58.2451   65.2907 C   0  0  0  0  0  0  0  0  0  0  0  0
  -49.7419   58.3155   65.3604 C   0  0  0  0  0  0  0  0  0  0  0  0
  -50.4095   59.6195   65.4733 C   0  0  0  0  0  0  0  0  0  0  0  0
  -50.4448   60.5629   64.2916 C   0  0  0  0  0  0  0  0  0  0  0  0
  -51.1769   59.9132   63.1180 C   0  0  0  0  0  0  0  0  0  0  0  0
  -50.2471   59.5177   61.9740 C   0  0  0  0  0  0  0  0  0  0  0  0
  -50.4974   58.0783   61.5163 C   0  0  0  0  0  0  0  0  0  0  0  0
  -49.2667   57.3569   60.9535 C   0  0  0  0  0  0  0  0  0  0  0  0
  -48.5110   58.2143   59.9296 C   0  0  0  0  0  0  0  0  0  0  0  0
  -47.5787   57.3871   59.0406 C   0  0  0  0  0  0  0  0  0  0  0  0
  -47.0888   58.1447   57.8006 C   0  0  0  0  0  0  0  0  0  0  0  0
  -47.6868   58.9926   66.4949 C   0  0  0  0  0  0  0  0  0  0  0  0
  -46.5312   59.9014   66.1157 C   0  0  0  0  0  0  0  0  0  0  0  0
  -45.1895   59.2281   66.3884 C   0  0  0  0  0  0  0  0  0  0  0  0
  -44.4570   58.9686   65.0793 C   0  0  0  0  0  0  0  0  0  0  0  0
  -43.6450   57.6852   65.1552 C   0  0  0  0  0  0  0  0  0  0  0  0
  -42.5678   57.7790   66.2311 C   0  0  0  0  0  0  0  0  0  0  0  0
  -41.6002   58.8951   65.8888 C   0  0  0  0  0  0  0  0  0  0  0  0
  -41.6368   59.9792   66.5251 O   0  0  0  0  0  0  0  0  0  0  0  0
  -40.7590   58.7472   64.9649 O   0  0  0  0  0  0  0  0  0  0  0  0
  -40.7254   57.9425   64.4861 H   0  0  0  0  0  0  0  0  0  0  0  0
 18 19  2  0  0  0
 18 17  1  0  0  0
 18 20  1  0  0  0
 17 16  1  0  0  0
 20 21  1  0  0  0
 16 15  1  0  0  0
 15 14  1  0  0  0
 14 13  1  0  0  0
 13 12  1  0  0  0
 12  1  1  0  0  0
  1  2  1  0  0  0
  2  3  1  0  0  0
  3  4  1  0  0  0
  4  5  1  0  0  0
  5  6  1  0  0  0
  6  7  1  0  0  0
  7  8  1  0  0  0
  8  9  1  0  0  0
  9 10  1  0  0  0
 10 11  1  0  0  0
M  END
> <minimizedAffinity>
-6.76840

> <CNNscore>
0.7283386588

> <CNNaffinity>
6.6112823486

> <CNN_VS>
4.8152523041

> <CNNaffinity_variance>
0.5542922616

$$$$
/media/chris/experiments/cd1a-new-docking/inputs/ligands/4x6d_1_ligand.pdb


 21 20  0  0  0  0  0  0  0  0999 V2000
  -43.6282   58.8602   64.6607 C   0  0  0  0  0  0  0  0  0  0  0  0
  -44.7411   57.8418   64.6668 C   0  0  0  0  0  0  0  0  0  0  0  0
  -45.2483   57.3189   65.9428 C   0  0  0  0  0  0  0  0  0  0  0  0
  -46.6802   57.5755   66.3567 C   0  0  0  0  0  0  0  0  0  0  0  0
  -47.3387   58.5659   65.3972 C   0  0  0  0  0  0  0  0  0  0  0  0
  -48.6659   58.0652   64.8336 C   0  0  0  0  0  0  0  0  0  0  0  0
  -48.6849   58.1198   63.3036 C   0  0  0  0  0  0  0  0  0  0  0  0
  -49.5225   59.2584   62.7089 C   0  0  0  0  0  0  0  0  0  0  0  0
  -50.9324   58.7965   62.3173 C   0  0  0  0  0  0  0  0  0  0  0  0
  -50.9181   57.5798   61.3881 C   0  0  0  0  0  0  0  0  0  0  0  0
  -50.2925   57.8673   60.0179 C   0  0  0  0  0  0  0  0  0  0  0  0
  -43.1304   59.0032   66.0899 C   0  0  0  0  0  0  0  0  0  0  0  0
  -41.6171   58.9121   66.1723 C   0  0  0  0  0  0  0  0  0  0  0  0
  -40.9744   59.1944   64.8176 C   0  0  0  0  0  0  0  0  0  0  0  0
  -39.5151   58.7614   64.8288 C   0  0  0  0  0  0  0  0  0  0  0  0
  -38.8502   59.0546   63.4930 C   0  0  0  0  0  0  0  0  0  0  0  0
  -39.5011   60.2505   62.8057 C   0  0  0  0  0  0  0  0  0  0  0  0
  -38.8884   60.4458   61.4325 C   0  0  0  0  0  0  0  0  0  0  0  0
  -39.6000   60.8427   60.4746 O   0  0  0  0  0  0  0  0  0  0  0  0
  -37.6677   60.2085   61.2405 O   0  0  0  0  0  0  0  0  0  0  0  0
  -37.1309   59.9125   61.9490 H   0  0  0  0  0  0  0  0  0  0  0  0
 18 19  2  0  0  0
 18 17  1  0  0  0
 18 20  1  0  0  0
 17 16  1  0  0  0
 20 21  1  0  0  0
 16 15  1  0  0  0
 15 14  1  0  0  0
 14 13  1  0  0  0
 13 12  1  0  0  0
 12  1  1  0  0  0
  1  2  1  0  0  0
  2  3  1  0  0  0
  3  4  1  0  0  0
  4  5  1  0  0  0
  5  6  1  0  0  0
  6  7  1  0  0  0
  7  8  1  0  0  0
  8  9  1  0  0  0
  9 10  1  0  0  0
 10 11  1  0  0  0
M  END
> <minimizedAffinity>
-6.54328

> <CNNscore>
0.6615191698

> <CNNaffinity>
6.4792833328

> <CNN_VS>
4.2861700058

> <CNNaffinity_variance>
0.5511907339

$$$$
/media/chris/experiments/cd1a-new-docking/inputs/ligands/4x6d_1_ligand.pdb


 21 20  0  0  0  0  0  0  0  0999 V2000
  -44.5685   57.6609   64.4495 C   0  0  0  0  0  0  0  0  0  0  0  0
  -45.7296   58.4319   65.0268 C   0  0  0  0  0  0  0  0  0  0  0  0
  -47.1064   58.0355   64.7007 C   0  0  0  0  0  0  0  0  0  0  0  0
  -48.1064   59.0687   64.2316 C   0  0  0  0  0  0  0  0  0  0  0  0
  -48.7364   58.6327   62.9093 C   0  0  0  0  0  0  0  0  0  0  0  0
  -49.3174   59.7947   62.1081 C   0  0  0  0  0  0  0  0  0  0  0  0
  -49.3760   59.4743   60.6121 C   0  0  0  0  0  0  0  0  0  0  0  0
  -49.9611   58.0989   60.2692 C   0  0  0  0  0  0  0  0  0  0  0  0
  -49.1484   57.3778   59.1855 C   0  0  0  0  0  0  0  0  0  0  0  0
  -47.6721   57.7831   59.1872 C   0  0  0  0  0  0  0  0  0  0  0  0
  -47.1249   58.0959   57.7893 C   0  0  0  0  0  0  0  0  0  0  0  0
  -43.5309   57.5038   65.5494 C   0  0  0  0  0  0  0  0  0  0  0  0
  -42.9741   58.8439   65.9955 C   0  0  0  0  0  0  0  0  0  0  0  0
  -42.0846   59.4564   64.9177 C   0  0  0  0  0  0  0  0  0  0  0  0
  -42.7842   60.6447   64.2729 C   0  0  0  0  0  0  0  0  0  0  0  0
  -41.7856   61.5430   63.5602 C   0  0  0  0  0  0  0  0  0  0  0  0
  -41.2210   60.8607   62.3183 C   0  0  0  0  0  0  0  0  0  0  0  0
  -41.5646   61.6763   61.0870 C   0  0  0  0  0  0  0  0  0  0  0  0
  -42.4038   62.6098   61.1624 O   0  0  0  0  0  0  0  0  0  0  0  0
  -41.0176   61.4229   59.9826 O   0  0  0  0  0  0  0  0  0  0  0  0
  -40.3913   60.7290   59.9183 H   0  0  0  0  0  0  0  0  0  0  0  0
 18 19  2  0  0  0
 18 17  1  0  0  0
 18 20  1  0  0  0
 17 16  1  0  0  0
 20 21  1  0  0  0
 16 15  1  0  0  0
 15 14  1  0  0  0
 14 13  1  0  0  0
 13 12  1  0  0  0
 12  1  1  0  0  0
  1  2  1  0  0  0
  2  3  1  0  0  0
  3  4  1  0  0  0
  4  5  1  0  0  0
  5  6  1  0  0  0
  6  7  1  0  0  0
  7  8  1  0  0  0
  8  9  1  0  0  0
  9 10  1  0  0  0
 10 11  1  0  0  0
M  END
> <minimizedAffinity>
-6.76595

> <CNNscore>
0.6307222247

> <CNNaffinity>
6.2932405472

> <CNN_VS>
3.9692866802

> <CNNaffinity_variance>
0.2923423648

$$$$
