/media/chris/experiments/cd1a-new-docking/inputs/ligands/4x6d_1_ligand.pdb


 21 20  0  0  0  0  0  0  0  0999 V2000
  -46.9085   58.4115   64.8266 C   0  0  0  0  0  0  0  0  0  0  0  0
  -48.1167   58.1486   65.6908 C   0  0  0  0  0  0  0  0  0  0  0  0
  -49.4659   58.2994   65.1288 C   0  0  0  0  0  0  0  0  0  0  0  0
  -50.2683   59.5529   65.3980 C   0  0  0  0  0  0  0  0  0  0  0  0
  -50.6801   60.2101   64.0812 C   0  0  0  0  0  0  0  0  0  0  0  0
  -49.4911   60.6358   63.2240 C   0  0  0  0  0  0  0  0  0  0  0  0
  -49.6540   60.1842   61.7702 C   0  0  0  0  0  0  0  0  0  0  0  0
  -50.1574   58.7465   61.5936 C   0  0  0  0  0  0  0  0  0  0  0  0
  -49.7590   58.1564   60.2343 C   0  0  0  0  0  0  0  0  0  0  0  0
  -48.3340   58.5342   59.8218 C   0  0  0  0  0  0  0  0  0  0  0  0
  -47.6047   57.4204   59.0608 C   0  0  0  0  0  0  0  0  0  0  0  0
  -45.7294   57.6864   65.4549 C   0  0  0  0  0  0  0  0  0  0  0  0
  -44.4716   57.8206   64.6150 C   0  0  0  0  0  0  0  0  0  0  0  0
  -43.2655   57.2202   65.3311 C   0  0  0  0  0  0  0  0  0  0  0  0
  -42.7765   58.1665   66.4186 C   0  0  0  0  0  0  0  0  0  0  0  0
  -41.6777   59.0773   65.8939 C   0  0  0  0  0  0  0  0  0  0  0  0
  -41.7499   60.4559   66.5426 C   0  0  0  0  0  0  0  0  0  0  0  0
  -40.6828   61.3554   65.9499 C   0  0  0  0  0  0  0  0  0  0  0  0
  -39.4662   61.1073   66.1494 O   0  0  0  0  0  0  0  0  0  0  0  0
  -41.0055   62.3568   65.2597 O   0  0  0  0  0  0  0  0  0  0  0  0
  -41.9099   62.5483   65.1064 H   0  0  0  0  0  0  0  0  0  0  0  0
 18 19  2  0  0  0
 18 17  1  0  0  0
 18 20  1  0  0  0
 17 16  1  0  0  0
 20 21  1  0  0  0
 16 15  1  0  0  0
 15 14  1  0  0  0
 14 13  1  0  0  0
 13 12  1  0  0  0
 12  1  1  0  0  0
  1  2  1  0  0  0
  2  3  1  0  0  0
  3  4  1  0  0  0
  4  5  1  0  0  0
  5  6  1  0  0  0
  6  7  1  0  0  0
  7  8  1  0  0  0
  8  9  1  0  0  0
  9 10  1  0  0  0
 10 11  1  0  0  0
M  END
> <minimizedAffinity>
-6.98795

> <CNNscore>
0.9145957828

> <CNNaffinity>
6.8636717796

> <CNN_VS>
6.2774853706

> <CNNaffinity_variance>
0.4765897691

$$$$
/media/chris/experiments/cd1a-new-docking/inputs/ligands/4x6d_1_ligand.pdb


 21 20  0  0  0  0  0  0  0  0999 V2000
  -46.4329   60.1554   65.1991 C   0  0  0  0  0  0  0  0  0  0  0  0
  -47.8752   60.5909   65.1214 C   0  0  0  0  0  0  0  0  0  0  0  0
  -48.8570   60.0449   66.0685 C   0  0  0  0  0  0  0  0  0  0  0  0
  -50.0890   59.3290   65.5616 C   0  0  0  0  0  0  0  0  0  0  0  0
  -50.9547   60.2835   64.7400 C   0  0  0  0  0  0  0  0  0  0  0  0
  -51.0745   59.8758   63.2741 C   0  0  0  0  0  0  0  0  0  0  0  0
  -50.2910   58.5937   62.9798 C   0  0  0  0  0  0  0  0  0  0  0  0
  -49.0862   58.7731   62.0482 C   0  0  0  0  0  0  0  0  0  0  0  0
  -49.3949   58.3324   60.6112 C   0  0  0  0  0  0  0  0  0  0  0  0
  -48.2004   58.5093   59.6703 C   0  0  0  0  0  0  0  0  0  0  0  0
  -47.6014   57.1819   59.1900 C   0  0  0  0  0  0  0  0  0  0  0  0
  -46.3865   58.6674   64.8919 C   0  0  0  0  0  0  0  0  0  0  0  0
  -45.1209   58.0200   65.4252 C   0  0  0  0  0  0  0  0  0  0  0  0
  -44.0171   59.0539   65.6263 C   0  0  0  0  0  0  0  0  0  0  0  0
  -42.8240   58.4181   66.3261 C   0  0  0  0  0  0  0  0  0  0  0  0
  -41.8377   59.4779   66.7914 C   0  0  0  0  0  0  0  0  0  0  0  0
  -40.6608   59.5943   65.8281 C   0  0  0  0  0  0  0  0  0  0  0  0
  -40.0095   60.9551   65.9801 C   0  0  0  0  0  0  0  0  0  0  0  0
  -38.7605   61.0477   66.0942 O   0  0  0  0  0  0  0  0  0  0  0  0
  -40.7120   61.9988   65.9977 O   0  0  0  0  0  0  0  0  0  0  0  0
  -41.6433   61.9382   65.9131 H   0  0  0  0  0  0  0  0  0  0  0  0
 18 19  2  0  0  0
 18 17  1  0  0  0
 18 20  1  0  0  0
 17 16  1  0  0  0
 20 21  1  0  0  0
 16 15  1  0  0  0
 15 14  1  0  0  0
 14 13  1  0  0  0
 13 12  1  0  0  0
 12  1  1  0  0  0
  1  2  1  0  0  0
  2  3  1  0  0  0
  3  4  1  0  0  0
  4  5  1  0  0  0
  5  6  1  0  0  0
  6  7  1  0  0  0
  7  8  1  0  0  0
  8  9  1  0  0  0
  9 10  1  0  0  0
 10 11  1  0  0  0
M  END
> <minimizedAffinity>
-6.99418

> <CNNscore>
0.8971124291

> <CNNaffinity>
6.7376418114

> <CNN_VS>
6.0444221497

> <CNNaffinity_variance>
0.5377919674

$$$$
/media/chris/experiments/cd1a-new-docking/inputs/ligands/4x6d_1_ligand.pdb


 21 20  0  0  0  0  0  0  0  0999 V2000
  -45.2636   57.7129   65.5697 C   0  0  0  0  0  0  0  0  0  0  0  0
  -46.3725   58.1469   64.6435 C   0  0  0  0  0  0  0  0  0  0  0  0
  -47.5063   58.9191   65.1699 C   0  0  0  0  0  0  0  0  0  0  0  0
  -48.7410   58.2097   65.6796 C   0  0  0  0  0  0  0  0  0  0  0  0
  -49.9932   59.0169   65.3390 C   0  0  0  0  0  0  0  0  0  0  0  0
  -49.9008   59.7308   63.9931 C   0  0  0  0  0  0  0  0  0  0  0  0
  -51.0753   59.3676   63.0807 C   0  0  0  0  0  0  0  0  0  0  0  0
  -50.7881   58.2468   62.0742 C   0  0  0  0  0  0  0  0  0  0  0  0
  -49.3063   58.1878   61.6806 C   0  0  0  0  0  0  0  0  0  0  0  0
  -49.0745   57.4412   60.3644 C   0  0  0  0  0  0  0  0  0  0  0  0
  -48.0106   58.0935   59.4733 C   0  0  0  0  0  0  0  0  0  0  0  0
  -45.0386   58.8340   66.5714 C   0  0  0  0  0  0  0  0  0  0  0  0
  -44.0146   59.8385   66.0738 C   0  0  0  0  0  0  0  0  0  0  0  0
  -42.9233   60.0727   67.1140 C   0  0  0  0  0  0  0  0  0  0  0  0
  -41.8079   59.0509   66.9433 C   0  0  0  0  0  0  0  0  0  0  0  0
  -41.4534   58.8722   65.4755 C   0  0  0  0  0  0  0  0  0  0  0  0
  -39.9609   59.0822   65.2409 C   0  0  0  0  0  0  0  0  0  0  0  0
  -39.6138   60.5449   65.4389 C   0  0  0  0  0  0  0  0  0  0  0  0
  -40.2285   61.4322   64.7936 O   0  0  0  0  0  0  0  0  0  0  0  0
  -38.7077   60.8808   66.2446 O   0  0  0  0  0  0  0  0  0  0  0  0
  -38.2451   60.2256   66.7292 H   0  0  0  0  0  0  0  0  0  0  0  0
 18 19  2  0  0  0
 18 17  1  0  0  0
 18 20  1  0  0  0
 17 16  1  0  0  0
 20 21  1  0  0  0
 16 15  1  0  0  0
 15 14  1  0  0  0
 14 13  1  0  0  0
 13 12  1  0  0  0
 12  1  1  0  0  0
  1  2  1  0  0  0
  2  3  1  0  0  0
  3  4  1  0  0  0
  4  5  1  0  0  0
  5  6  1  0  0  0
  6  7  1  0  0  0
  7  8  1  0  0  0
  8  9  1  0  0  0
  9 10  1  0  0  0
 10 11  1  0  0  0
M  END
> <minimizedAffinity>
-6.66692

> <CNNscore>
0.8393006921

> <CNNaffinity>
6.7581834793

> <CNN_VS>
5.6721482277

> <CNNaffinity_variance>
0.5920381546

$$$$
/media/chris/experiments/cd1a-new-docking/inputs/ligands/4x6d_1_ligand.pdb


 21 20  0  0  0  0  0  0  0  0999 V2000
  -43.6791   57.7197   65.3021 C   0  0  0  0  0  0  0  0  0  0  0  0
  -45.0445   57.0997   65.1373 C   0  0  0  0  0  0  0  0  0  0  0  0
  -46.0624   57.2819   66.1812 C   0  0  0  0  0  0  0  0  0  0  0  0
  -47.5191   57.0064   65.8821 C   0  0  0  0  0  0  0  0  0  0  0  0
  -48.1185   58.1540   65.0701 C   0  0  0  0  0  0  0  0  0  0  0  0
  -49.6399   58.2285   65.1668 C   0  0  0  0  0  0  0  0  0  0  0  0
  -50.1130   59.6374   65.5344 C   0  0  0  0  0  0  0  0  0  0  0  0
  -51.0383   60.2968   64.5045 C   0  0  0  0  0  0  0  0  0  0  0  0
  -50.7475   59.8193   63.0755 C   0  0  0  0  0  0  0  0  0  0  0  0
  -49.5106   60.4880   62.4701 C   0  0  0  0  0  0  0  0  0  0  0  0
  -49.4866   60.4502   60.9373 C   0  0  0  0  0  0  0  0  0  0  0  0
  -43.8168   59.2092   65.0314 C   0  0  0  0  0  0  0  0  0  0  0  0
  -42.5146   59.9503   65.2772 C   0  0  0  0  0  0  0  0  0  0  0  0
  -41.3999   58.9869   65.6736 C   0  0  0  0  0  0  0  0  0  0  0  0
  -40.2370   59.0999   64.6977 C   0  0  0  0  0  0  0  0  0  0  0  0
  -38.9824   59.5933   65.4009 C   0  0  0  0  0  0  0  0  0  0  0  0
  -37.7303   58.9675   64.7947 C   0  0  0  0  0  0  0  0  0  0  0  0
  -36.7841   60.0602   64.3365 C   0  0  0  0  0  0  0  0  0  0  0  0
  -36.1803   59.9526   63.2386 O   0  0  0  0  0  0  0  0  0  0  0  0
  -36.5929   61.0778   65.0515 O   0  0  0  0  0  0  0  0  0  0  0  0
  -37.0391   61.1654   65.8708 H   0  0  0  0  0  0  0  0  0  0  0  0
 18 19  2  0  0  0
 18 17  1  0  0  0
 18 20  1  0  0  0
 17 16  1  0  0  0
 20 21  1  0  0  0
 16 15  1  0  0  0
 15 14  1  0  0  0
 14 13  1  0  0  0
 13 12  1  0  0  0
 12  1  1  0  0  0
  1  2  1  0  0  0
  2  3  1  0  0  0
  3  4  1  0  0  0
  4  5  1  0  0  0
  5  6  1  0  0  0
  6  7  1  0  0  0
  7  8  1  0  0  0
  8  9  1  0  0  0
  9 10  1  0  0  0
 10 11  1  0  0  0
M  END
> <minimizedAffinity>
-6.50650

> <CNNscore>
0.7817612886

> <CNNaffinity>
6.5231575966

> <CNN_VS>
5.0995521545

> <CNNaffinity_variance>
0.4113531709

$$$$
/media/chris/experiments/cd1a-new-docking/inputs/ligands/4x6d_1_ligand.pdb


 21 20  0  0  0  0  0  0  0  0999 V2000
  -45.6458   59.1122   65.8582 C   0  0  0  0  0  0  0  0  0  0  0  0
  -46.2455   60.3375   65.2141 C   0  0  0  0  0  0  0  0  0  0  0  0
  -47.7014   60.4359   65.0416 C   0  0  0  0  0  0  0  0  0  0  0  0
  -48.6334   59.8535   66.0806 C   0  0  0  0  0  0  0  0  0  0  0  0
  -49.7045   58.9953   65.4084 C   0  0  0  0  0  0  0  0  0  0  0  0
  -49.3515   58.6064   63.9753 C   0  0  0  0  0  0  0  0  0  0  0  0
  -50.4307   59.0567   62.9870 C   0  0  0  0  0  0  0  0  0  0  0  0
  -49.9221   59.9167   61.8236 C   0  0  0  0  0  0  0  0  0  0  0  0
  -49.0842   59.1051   60.8269 C   0  0  0  0  0  0  0  0  0  0  0  0
  -49.9304   58.1394   59.9934 C   0  0  0  0  0  0  0  0  0  0  0  0
  -49.6615   56.6635   60.3115 C   0  0  0  0  0  0  0  0  0  0  0  0
  -45.5348   58.0395   64.7868 C   0  0  0  0  0  0  0  0  0  0  0  0
  -44.1159   57.5143   64.6588 C   0  0  0  0  0  0  0  0  0  0  0  0
  -43.3413   57.6998   65.9601 C   0  0  0  0  0  0  0  0  0  0  0  0
  -42.0514   58.4648   65.6983 C   0  0  0  0  0  0  0  0  0  0  0  0
  -41.6878   59.3414   66.8864 C   0  0  0  0  0  0  0  0  0  0  0  0
  -42.0231   60.8041   66.6134 C   0  0  0  0  0  0  0  0  0  0  0  0
  -40.9408   61.4235   65.7508 C   0  0  0  0  0  0  0  0  0  0  0  0
  -41.2272   61.8944   64.6204 O   0  0  0  0  0  0  0  0  0  0  0  0
  -39.7505   61.4669   66.1563 O   0  0  0  0  0  0  0  0  0  0  0  0
  -39.5292   61.1183   66.9975 H   0  0  0  0  0  0  0  0  0  0  0  0
 18 19  2  0  0  0
 18 17  1  0  0  0
 18 20  1  0  0  0
 17 16  1  0  0  0
 20 21  1  0  0  0
 16 15  1  0  0  0
 15 14  1  0  0  0
 14 13  1  0  0  0
 13 12  1  0  0  0
 12  1  1  0  0  0
  1  2  1  0  0  0
  2  3  1  0  0  0
  3  4  1  0  0  0
  4  5  1  0  0  0
  5  6  1  0  0  0
  6  7  1  0  0  0
  7  8  1  0  0  0
  8  9  1  0  0  0
  9 10  1  0  0  0
 10 11  1  0  0  0
M  END
> <minimizedAffinity>
-6.73590

> <CNNscore>
0.7625621557

> <CNNaffinity>
6.5065307617

> <CNN_VS>
4.9616341591

> <CNNaffinity_variance>
0.4039661288

$$$$
/media/chris/experiments/cd1a-new-docking/inputs/ligands/4x6d_1_ligand.pdb


 21 20  0  0  0  0  0  0  0  0999 V2000
  -45.3432   57.8309   64.7111 C   0  0  0  0  0  0  0  0  0  0  0  0
  -45.8701   58.2425   66.0634 C   0  0  0  0  0  0  0  0  0  0  0  0
  -46.5013   59.5584   66.2338 C   0  0  0  0  0  0  0  0  0  0  0  0
  -46.5265   60.5461   65.0887 C   0  0  0  0  0  0  0  0  0  0  0  0
  -47.9499   61.0521   64.8581 C   0  0  0  0  0  0  0  0  0  0  0  0
  -48.9451   59.9336   64.5612 C   0  0  0  0  0  0  0  0  0  0  0  0
  -50.0346   60.3921   63.5883 C   0  0  0  0  0  0  0  0  0  0  0  0
  -49.6504   60.3145   62.1057 C   0  0  0  0  0  0  0  0  0  0  0  0
  -49.0094   58.9683   61.7434 C   0  0  0  0  0  0  0  0  0  0  0  0
  -49.0615   58.6750   60.2419 C   0  0  0  0  0  0  0  0  0  0  0  0
  -47.9675   57.7087   59.7717 C   0  0  0  0  0  0  0  0  0  0  0  0
  -44.0999   56.9870   64.9416 C   0  0  0  0  0  0  0  0  0  0  0  0
  -43.2503   57.5318   66.0759 C   0  0  0  0  0  0  0  0  0  0  0  0
  -42.1529   58.4513   65.5485 C   0  0  0  0  0  0  0  0  0  0  0  0
  -42.4917   59.9030   65.8570 C   0  0  0  0  0  0  0  0  0  0  0  0
  -43.0122   60.6153   64.6185 C   0  0  0  0  0  0  0  0  0  0  0  0
  -41.9267   60.7297   63.5531 C   0  0  0  0  0  0  0  0  0  0  0  0
  -40.8502   61.6892   64.0219 C   0  0  0  0  0  0  0  0  0  0  0  0
  -39.6625   61.2943   64.1438 O   0  0  0  0  0  0  0  0  0  0  0  0
  -41.1372   62.8831   64.2962 O   0  0  0  0  0  0  0  0  0  0  0  0
  -42.0199   63.1850   64.2079 H   0  0  0  0  0  0  0  0  0  0  0  0
 18 19  2  0  0  0
 18 17  1  0  0  0
 18 20  1  0  0  0
 17 16  1  0  0  0
 20 21  1  0  0  0
 16 15  1  0  0  0
 15 14  1  0  0  0
 14 13  1  0  0  0
 13 12  1  0  0  0
 12  1  1  0  0  0
  1  2  1  0  0  0
  2  3  1  0  0  0
  3  4  1  0  0  0
  4  5  1  0  0  0
  5  6  1  0  0  0
  6  7  1  0  0  0
  7  8  1  0  0  0
  8  9  1  0  0  0
  9 10  1  0  0  0
 10 11  1  0  0  0
M  END
> <minimizedAffinity>
-6.41909

> <CNNscore>
0.7286280990

> <CNNaffinity>
6.4871892929

> <CNN_VS>
4.7267484665

> <CNNaffinity_variance>
0.4569966793

$$$$
/media/chris/experiments/cd1a-new-docking/inputs/ligands/4x6d_1_ligand.pdb


 21 20  0  0  0  0  0  0  0  0999 V2000
  -44.0355   59.5878   65.1062 C   0  0  0  0  0  0  0  0  0  0  0  0
  -45.3801   60.2707   65.1478 C   0  0  0  0  0  0  0  0  0  0  0  0
  -46.4116   59.8007   66.0828 C   0  0  0  0  0  0  0  0  0  0  0  0
  -47.8345   60.2985   65.9613 C   0  0  0  0  0  0  0  0  0  0  0  0
  -48.2307   60.4137   64.4898 C   0  0  0  0  0  0  0  0  0  0  0  0
  -49.5552   61.1424   64.2789 C   0  0  0  0  0  0  0  0  0  0  0  0
  -50.7357   60.1680   64.2469 C   0  0  0  0  0  0  0  0  0  0  0  0
  -51.1775   59.7354   62.8436 C   0  0  0  0  0  0  0  0  0  0  0  0
  -50.7660   58.2917   62.5264 C   0  0  0  0  0  0  0  0  0  0  0  0
  -50.1134   58.1532   61.1485 C   0  0  0  0  0  0  0  0  0  0  0  0
  -49.0995   59.2617   60.8405 C   0  0  0  0  0  0  0  0  0  0  0  0
  -43.6435   59.2606   66.5380 C   0  0  0  0  0  0  0  0  0  0  0  0
  -42.4072   60.0265   66.9739 C   0  0  0  0  0  0  0  0  0  0  0  0
  -41.4031   60.1460   65.8313 C   0  0  0  0  0  0  0  0  0  0  0  0
  -40.7189   58.8074   65.5920 C   0  0  0  0  0  0  0  0  0  0  0  0
  -39.6472   58.9279   64.5201 C   0  0  0  0  0  0  0  0  0  0  0  0
  -38.2504   58.8503   65.1280 C   0  0  0  0  0  0  0  0  0  0  0  0
  -37.6846   60.2480   65.2873 C   0  0  0  0  0  0  0  0  0  0  0  0
  -37.8128   60.8600   66.3784 O   0  0  0  0  0  0  0  0  0  0  0  0
  -37.0882   60.8063   64.3303 O   0  0  0  0  0  0  0  0  0  0  0  0
  -36.9885   60.3568   63.5142 H   0  0  0  0  0  0  0  0  0  0  0  0
 18 19  2  0  0  0
 18 17  1  0  0  0
 18 20  1  0  0  0
 17 16  1  0  0  0
 20 21  1  0  0  0
 16 15  1  0  0  0
 15 14  1  0  0  0
 14 13  1  0  0  0
 13 12  1  0  0  0
 12  1  1  0  0  0
  1  2  1  0  0  0
  2  3  1  0  0  0
  3  4  1  0  0  0
  4  5  1  0  0  0
  5  6  1  0  0  0
  6  7  1  0  0  0
  7  8  1  0  0  0
  8  9  1  0  0  0
  9 10  1  0  0  0
 10 11  1  0  0  0
M  END
> <minimizedAffinity>
-6.61452

> <CNNscore>
0.6726964116

> <CNNaffinity>
6.1428360939

> <CNN_VS>
4.1322636604

> <CNNaffinity_variance>
0.2633872330

$$$$
/media/chris/experiments/cd1a-new-docking/inputs/ligands/4x6d_1_ligand.pdb


 21 20  0  0  0  0  0  0  0  0999 V2000
  -44.7608   57.5504   64.8877 C   0  0  0  0  0  0  0  0  0  0  0  0
  -46.0572   57.8217   65.6098 C   0  0  0  0  0  0  0  0  0  0  0  0
  -46.1651   58.9763   66.5122 C   0  0  0  0  0  0  0  0  0  0  0  0
  -47.0984   60.1191   66.1799 C   0  0  0  0  0  0  0  0  0  0  0  0
  -47.4958   60.0656   64.7052 C   0  0  0  0  0  0  0  0  0  0  0  0
  -48.4764   61.1652   64.3064 C   0  0  0  0  0  0  0  0  0  0  0  0
  -49.8744   60.6027   64.0358 C   0  0  0  0  0  0  0  0  0  0  0  0
  -49.9856   59.0763   64.1320 C   0  0  0  0  0  0  0  0  0  0  0  0
  -50.3700   58.4381   62.7906 C   0  0  0  0  0  0  0  0  0  0  0  0
  -49.1619   58.2071   61.8792 C   0  0  0  0  0  0  0  0  0  0  0  0
  -49.0788   59.2009   60.7143 C   0  0  0  0  0  0  0  0  0  0  0  0
  -43.6273   57.9854   65.8024 C   0  0  0  0  0  0  0  0  0  0  0  0
  -42.6950   58.9688   65.1175 C   0  0  0  0  0  0  0  0  0  0  0  0
  -41.3232   58.9824   65.7851 C   0  0  0  0  0  0  0  0  0  0  0  0
  -40.2305   58.7912   64.7425 C   0  0  0  0  0  0  0  0  0  0  0  0
  -38.8626   59.1155   65.3220 C   0  0  0  0  0  0  0  0  0  0  0  0
  -37.8231   58.0880   64.8858 C   0  0  0  0  0  0  0  0  0  0  0  0
  -36.6558   58.7927   64.2225 C   0  0  0  0  0  0  0  0  0  0  0  0
  -36.8054   59.3433   63.1019 O   0  0  0  0  0  0  0  0  0  0  0  0
  -35.5306   58.8278   64.7846 O   0  0  0  0  0  0  0  0  0  0  0  0
  -35.4112   58.4199   65.6198 H   0  0  0  0  0  0  0  0  0  0  0  0
 18 19  2  0  0  0
 18 17  1  0  0  0
 18 20  1  0  0  0
 17 16  1  0  0  0
 20 21  1  0  0  0
 16 15  1  0  0  0
 15 14  1  0  0  0
 14 13  1  0  0  0
 13 12  1  0  0  0
 12  1  1  0  0  0
  1  2  1  0  0  0
  2  3  1  0  0  0
  3  4  1  0  0  0
  4  5  1  0  0  0
  5  6  1  0  0  0
  6  7  1  0  0  0
  7  8  1  0  0  0
  8  9  1  0  0  0
  9 10  1  0  0  0
 10 11  1  0  0  0
M  END
> <minimizedAffinity>
-5.91619

> <CNNscore>
0.6512673497

> <CNNaffinity>
6.3903899193

> <CNN_VS>
4.1618523598

> <CNNaffinity_variance>
0.4202541411

$$$$
/media/chris/experiments/cd1a-new-docking/inputs/ligands/4x6d_1_ligand.pdb


 21 20  0  0  0  0  0  0  0  0999 V2000
  -47.6000   59.2401   65.2359 C   0  0  0  0  0  0  0  0  0  0  0  0
  -46.7461   59.2820   66.4788 C   0  0  0  0  0  0  0  0  0  0  0  0
  -45.3887   58.7199   66.4541 C   0  0  0  0  0  0  0  0  0  0  0  0
  -45.1449   57.3406   65.8837 C   0  0  0  0  0  0  0  0  0  0  0  0
  -43.7367   57.2525   65.2966 C   0  0  0  0  0  0  0  0  0  0  0  0
  -42.6683   57.8578   66.2032 C   0  0  0  0  0  0  0  0  0  0  0  0
  -41.7066   58.7551   65.4195 C   0  0  0  0  0  0  0  0  0  0  0  0
  -42.1959   60.1923   65.2036 C   0  0  0  0  0  0  0  0  0  0  0  0
  -42.7708   60.4029   63.7967 C   0  0  0  0  0  0  0  0  0  0  0  0
  -42.4999   61.8080   63.2527 C   0  0  0  0  0  0  0  0  0  0  0  0
  -42.1304   61.8243   61.7645 C   0  0  0  0  0  0  0  0  0  0  0  0
  -48.6615   58.1723   65.4453 C   0  0  0  0  0  0  0  0  0  0  0  0
  -50.0531   58.7714   65.5435 C   0  0  0  0  0  0  0  0  0  0  0  0
  -50.1815   60.0113   64.6638 C   0  0  0  0  0  0  0  0  0  0  0  0
  -51.1719   59.7546   63.5366 C   0  0  0  0  0  0  0  0  0  0  0  0
  -50.4537   59.3120   62.2715 C   0  0  0  0  0  0  0  0  0  0  0  0
  -50.9509   57.9472   61.8059 C   0  0  0  0  0  0  0  0  0  0  0  0
  -50.1803   57.5165   60.5731 C   0  0  0  0  0  0  0  0  0  0  0  0
  -49.8940   56.3042   60.3996 O   0  0  0  0  0  0  0  0  0  0  0  0
  -49.8184   58.3667   59.7192 O   0  0  0  0  0  0  0  0  0  0  0  0
  -50.0280   59.2718   59.8413 H   0  0  0  0  0  0  0  0  0  0  0  0
 18 19  2  0  0  0
 18 17  1  0  0  0
 18 20  1  0  0  0
 17 16  1  0  0  0
 20 21  1  0  0  0
 16 15  1  0  0  0
 15 14  1  0  0  0
 14 13  1  0  0  0
 13 12  1  0  0  0
 12  1  1  0  0  0
  1  2  1  0  0  0
  2  3  1  0  0  0
  3  4  1  0  0  0
  4  5  1  0  0  0
  5  6  1  0  0  0
  6  7  1  0  0  0
  7  8  1  0  0  0
  8  9  1  0  0  0
  9 10  1  0  0  0
 10 11  1  0  0  0
M  END
> <minimizedAffinity>
-6.70330

> <CNNscore>
0.6485897899

> <CNNaffinity>
6.4309854507

> <CNN_VS>
4.1710715294

> <CNNaffinity_variance>
0.7196757793

$$$$
