/media/chris/experiments/cd1a-new-docking/inputs/ligands/4x6d_1_ligand.pdb


 21 20  0  0  0  0  0  0  0  0999 V2000
  -47.6503   57.2629   65.5557 C   0  0  0  0  0  0  0  0  0  0  0  0
  -48.2673   58.4367   64.8363 C   0  0  0  0  0  0  0  0  0  0  0  0
  -48.4928   58.3705   63.3859 C   0  0  0  0  0  0  0  0  0  0  0  0
  -49.9003   58.3193   62.8347 C   0  0  0  0  0  0  0  0  0  0  0  0
  -49.8951   58.6407   61.3407 C   0  0  0  0  0  0  0  0  0  0  0  0
  -50.1950   57.4280   60.4636 C   0  0  0  0  0  0  0  0  0  0  0  0
  -49.5154   57.5395   59.0963 C   0  0  0  0  0  0  0  0  0  0  0  0
  -48.0024   57.7848   59.1457 C   0  0  0  0  0  0  0  0  0  0  0  0
  -47.3659   57.7590   57.7497 C   0  0  0  0  0  0  0  0  0  0  0  0
  -48.1238   56.8574   56.7719 C   0  0  0  0  0  0  0  0  0  0  0  0
  -47.5312   55.4477   56.6587 C   0  0  0  0  0  0  0  0  0  0  0  0
  -46.2950   57.7084   66.0807 C   0  0  0  0  0  0  0  0  0  0  0  0
  -45.1537   57.0293   65.3448 C   0  0  0  0  0  0  0  0  0  0  0  0
  -44.3803   58.0273   64.4884 C   0  0  0  0  0  0  0  0  0  0  0  0
  -44.2961   59.3722   65.1968 C   0  0  0  0  0  0  0  0  0  0  0  0
  -43.0872   60.1627   64.7217 C   0  0  0  0  0  0  0  0  0  0  0  0
  -42.1884   60.5490   65.8919 C   0  0  0  0  0  0  0  0  0  0  0  0
  -41.1514   61.5538   65.4291 C   0  0  0  0  0  0  0  0  0  0  0  0
  -41.3053   62.1631   64.3397 O   0  0  0  0  0  0  0  0  0  0  0  0
  -40.1296   61.7816   66.1271 O   0  0  0  0  0  0  0  0  0  0  0  0
  -40.0078   61.3317   66.9399 H   0  0  0  0  0  0  0  0  0  0  0  0
 18 19  2  0  0  0
 18 17  1  0  0  0
 18 20  1  0  0  0
 17 16  1  0  0  0
 20 21  1  0  0  0
 16 15  1  0  0  0
 15 14  1  0  0  0
 14 13  1  0  0  0
 13 12  1  0  0  0
 12  1  1  0  0  0
  1  2  1  0  0  0
  2  3  1  0  0  0
  3  4  1  0  0  0
  4  5  1  0  0  0
  5  6  1  0  0  0
  6  7  1  0  0  0
  7  8  1  0  0  0
  8  9  1  0  0  0
  9 10  1  0  0  0
 10 11  1  0  0  0
M  END
> <minimizedAffinity>
-7.12001

> <CNNscore>
0.9319034219

> <CNNaffinity>
6.9148635864

> <CNN_VS>
6.4439849854

> <CNNaffinity_variance>
0.5392856002

$$$$
/media/chris/experiments/cd1a-new-docking/inputs/ligands/4x6d_1_ligand.pdb


 21 20  0  0  0  0  0  0  0  0999 V2000
  -45.8600   58.9285   64.9515 C   0  0  0  0  0  0  0  0  0  0  0  0
  -47.2121   59.5172   65.2695 C   0  0  0  0  0  0  0  0  0  0  0  0
  -48.4146   58.9873   64.6121 C   0  0  0  0  0  0  0  0  0  0  0  0
  -48.8589   59.5392   63.2759 C   0  0  0  0  0  0  0  0  0  0  0  0
  -49.1514   58.3976   62.3030 C   0  0  0  0  0  0  0  0  0  0  0  0
  -48.9718   58.7935   60.8399 C   0  0  0  0  0  0  0  0  0  0  0  0
  -49.8174   57.9179   59.9112 C   0  0  0  0  0  0  0  0  0  0  0  0
  -49.0932   57.4254   58.6524 C   0  0  0  0  0  0  0  0  0  0  0  0
  -47.6363   57.9038   58.5981 C   0  0  0  0  0  0  0  0  0  0  0  0
  -46.9723   57.6219   57.2478 C   0  0  0  0  0  0  0  0  0  0  0  0
  -47.8562   56.8121   56.2917 C   0  0  0  0  0  0  0  0  0  0  0  0
  -44.8067   59.8842   65.4882 C   0  0  0  0  0  0  0  0  0  0  0  0
  -44.0679   59.2992   66.6785 C   0  0  0  0  0  0  0  0  0  0  0  0
  -42.9115   60.1987   67.1046 C   0  0  0  0  0  0  0  0  0  0  0  0
  -41.5977   59.4329   67.0346 C   0  0  0  0  0  0  0  0  0  0  0  0
  -41.3605   58.8860   65.6357 C   0  0  0  0  0  0  0  0  0  0  0  0
  -39.8979   59.0330   65.2286 C   0  0  0  0  0  0  0  0  0  0  0  0
  -39.4832   60.4879   65.3310 C   0  0  0  0  0  0  0  0  0  0  0  0
  -39.9597   61.3372   64.5352 O   0  0  0  0  0  0  0  0  0  0  0  0
  -38.6581   60.8546   66.2072 O   0  0  0  0  0  0  0  0  0  0  0  0
  -38.2986   60.2277   66.8036 H   0  0  0  0  0  0  0  0  0  0  0  0
 18 19  2  0  0  0
 18 17  1  0  0  0
 18 20  1  0  0  0
 17 16  1  0  0  0
 20 21  1  0  0  0
 16 15  1  0  0  0
 15 14  1  0  0  0
 14 13  1  0  0  0
 13 12  1  0  0  0
 12  1  1  0  0  0
  1  2  1  0  0  0
  2  3  1  0  0  0
  3  4  1  0  0  0
  4  5  1  0  0  0
  5  6  1  0  0  0
  6  7  1  0  0  0
  7  8  1  0  0  0
  8  9  1  0  0  0
  9 10  1  0  0  0
 10 11  1  0  0  0
M  END
> <minimizedAffinity>
-6.89832

> <CNNscore>
0.9053077698

> <CNNaffinity>
6.7868003845

> <CNN_VS>
6.1441431046

> <CNNaffinity_variance>
0.4282005429

$$$$
/media/chris/experiments/cd1a-new-docking/inputs/ligands/4x6d_1_ligand.pdb


 21 20  0  0  0  0  0  0  0  0999 V2000
  -47.6214   58.6129   64.4647 C   0  0  0  0  0  0  0  0  0  0  0  0
  -48.6820   58.0481   65.3767 C   0  0  0  0  0  0  0  0  0  0  0  0
  -49.9611   58.7532   65.5373 C   0  0  0  0  0  0  0  0  0  0  0  0
  -50.1658   60.1138   64.9094 C   0  0  0  0  0  0  0  0  0  0  0  0
  -51.1657   60.0197   63.7576 C   0  0  0  0  0  0  0  0  0  0  0  0
  -50.5305   59.5679   62.4453 C   0  0  0  0  0  0  0  0  0  0  0  0
  -51.0107   58.1724   62.0378 C   0  0  0  0  0  0  0  0  0  0  0  0
  -50.0661   57.4139   61.0976 C   0  0  0  0  0  0  0  0  0  0  0  0
  -48.9232   58.3009   60.5862 C   0  0  0  0  0  0  0  0  0  0  0  0
  -47.8667   57.5121   59.8081 C   0  0  0  0  0  0  0  0  0  0  0  0
  -47.4824   58.1615   58.4732 C   0  0  0  0  0  0  0  0  0  0  0  0
  -46.2696   58.1919   65.0184 C   0  0  0  0  0  0  0  0  0  0  0  0
  -45.6057   59.3121   65.7990 C   0  0  0  0  0  0  0  0  0  0  0  0
  -44.5180   59.9898   64.9711 C   0  0  0  0  0  0  0  0  0  0  0  0
  -43.2031   59.2361   65.1147 C   0  0  0  0  0  0  0  0  0  0  0  0
  -42.3941   59.7714   66.2856 C   0  0  0  0  0  0  0  0  0  0  0  0
  -40.9120   59.8581   65.9359 C   0  0  0  0  0  0  0  0  0  0  0  0
  -40.5770   61.2641   65.4775 C   0  0  0  0  0  0  0  0  0  0  0  0
  -40.6349   62.2230   66.2892 O   0  0  0  0  0  0  0  0  0  0  0  0
  -40.2442   61.4822   64.2839 O   0  0  0  0  0  0  0  0  0  0  0  0
  -40.1989   60.7731   63.6732 H   0  0  0  0  0  0  0  0  0  0  0  0
 18 19  2  0  0  0
 18 17  1  0  0  0
 18 20  1  0  0  0
 17 16  1  0  0  0
 20 21  1  0  0  0
 16 15  1  0  0  0
 15 14  1  0  0  0
 14 13  1  0  0  0
 13 12  1  0  0  0
 12  1  1  0  0  0
  1  2  1  0  0  0
  2  3  1  0  0  0
  3  4  1  0  0  0
  4  5  1  0  0  0
  5  6  1  0  0  0
  6  7  1  0  0  0
  7  8  1  0  0  0
  8  9  1  0  0  0
  9 10  1  0  0  0
 10 11  1  0  0  0
M  END
> <minimizedAffinity>
-6.97976

> <CNNscore>
0.8648543358

> <CNNaffinity>
6.7771902084

> <CNN_VS>
5.8612823486

> <CNNaffinity_variance>
0.5739833117

$$$$
/media/chris/experiments/cd1a-new-docking/inputs/ligands/4x6d_1_ligand.pdb


 21 20  0  0  0  0  0  0  0  0999 V2000
  -47.6127   60.2604   65.2012 C   0  0  0  0  0  0  0  0  0  0  0  0
  -48.2504   61.2765   64.2864 C   0  0  0  0  0  0  0  0  0  0  0  0
  -49.3472   60.8736   63.3957 C   0  0  0  0  0  0  0  0  0  0  0  0
  -50.5333   60.1115   63.9432 C   0  0  0  0  0  0  0  0  0  0  0  0
  -51.1773   59.2720   62.8405 C   0  0  0  0  0  0  0  0  0  0  0  0
  -50.2859   58.1325   62.3540 C   0  0  0  0  0  0  0  0  0  0  0  0
  -50.7945   57.5424   61.0360 C   0  0  0  0  0  0  0  0  0  0  0  0
  -50.0558   58.0292   59.7835 C   0  0  0  0  0  0  0  0  0  0  0  0
  -48.5677   58.2888   60.0532 C   0  0  0  0  0  0  0  0  0  0  0  0
  -47.6783   57.9144   58.8648 C   0  0  0  0  0  0  0  0  0  0  0  0
  -47.5605   56.4014   58.6448 C   0  0  0  0  0  0  0  0  0  0  0  0
  -46.1128   60.5078   65.1858 C   0  0  0  0  0  0  0  0  0  0  0  0
  -45.3263   59.2122   65.2738 C   0  0  0  0  0  0  0  0  0  0  0  0
  -44.5095   59.1509   66.5611 C   0  0  0  0  0  0  0  0  0  0  0  0
  -43.2425   58.3364   66.3403 C   0  0  0  0  0  0  0  0  0  0  0  0
  -42.0588   58.9664   67.0573 C   0  0  0  0  0  0  0  0  0  0  0  0
  -42.0640   60.4834   66.8992 C   0  0  0  0  0  0  0  0  0  0  0  0
  -40.7895   60.9292   66.2093 C   0  0  0  0  0  0  0  0  0  0  0  0
  -39.9819   60.0749   65.7625 O   0  0  0  0  0  0  0  0  0  0  0  0
  -40.5286   62.1535   66.0831 O   0  0  0  0  0  0  0  0  0  0  0  0
  -41.1252   62.7961   66.4133 H   0  0  0  0  0  0  0  0  0  0  0  0
 18 19  2  0  0  0
 18 17  1  0  0  0
 18 20  1  0  0  0
 17 16  1  0  0  0
 20 21  1  0  0  0
 16 15  1  0  0  0
 15 14  1  0  0  0
 14 13  1  0  0  0
 13 12  1  0  0  0
 12  1  1  0  0  0
  1  2  1  0  0  0
  2  3  1  0  0  0
  3  4  1  0  0  0
  4  5  1  0  0  0
  5  6  1  0  0  0
  6  7  1  0  0  0
  7  8  1  0  0  0
  8  9  1  0  0  0
  9 10  1  0  0  0
 10 11  1  0  0  0
M  END
> <minimizedAffinity>
-7.27569

> <CNNscore>
0.8417259455

> <CNNaffinity>
6.5476965904

> <CNN_VS>
5.5113658905

> <CNNaffinity_variance>
0.4309828877

$$$$
/media/chris/experiments/cd1a-new-docking/inputs/ligands/4x6d_1_ligand.pdb


 21 20  0  0  0  0  0  0  0  0999 V2000
  -46.5882   58.2611   64.6250 C   0  0  0  0  0  0  0  0  0  0  0  0
  -47.1965   59.1941   65.6425 C   0  0  0  0  0  0  0  0  0  0  0  0
  -47.5518   60.5668   65.2572 C   0  0  0  0  0  0  0  0  0  0  0  0
  -48.7315   60.8219   64.3458 C   0  0  0  0  0  0  0  0  0  0  0  0
  -50.0024   60.2216   64.9453 C   0  0  0  0  0  0  0  0  0  0  0  0
  -51.1776   60.2059   63.9713 C   0  0  0  0  0  0  0  0  0  0  0  0
  -50.7464   59.7485   62.5753 C   0  0  0  0  0  0  0  0  0  0  0  0
  -50.6723   58.2282   62.3887 C   0  0  0  0  0  0  0  0  0  0  0  0
  -49.3423   57.7858   61.7643 C   0  0  0  0  0  0  0  0  0  0  0  0
  -49.3960   57.7347   60.2352 C   0  0  0  0  0  0  0  0  0  0  0  0
  -48.2302   58.4671   59.5599 C   0  0  0  0  0  0  0  0  0  0  0  0
  -45.7308   57.2574   65.3790 C   0  0  0  0  0  0  0  0  0  0  0  0
  -45.1584   57.8496   66.6544 C   0  0  0  0  0  0  0  0  0  0  0  0
  -43.7058   58.2739   66.4603 C   0  0  0  0  0  0  0  0  0  0  0  0
  -43.5816   59.7870   66.5727 C   0  0  0  0  0  0  0  0  0  0  0  0
  -42.2494   60.1791   67.1920 C   0  0  0  0  0  0  0  0  0  0  0  0
  -41.0906   59.8544   66.2548 C   0  0  0  0  0  0  0  0  0  0  0  0
  -40.2721   61.1057   66.0025 C   0  0  0  0  0  0  0  0  0  0  0  0
  -39.0159   61.0552   66.0354 O   0  0  0  0  0  0  0  0  0  0  0  0
  -40.8418   62.2017   65.7638 O   0  0  0  0  0  0  0  0  0  0  0  0
  -41.7774   62.2475   65.7377 H   0  0  0  0  0  0  0  0  0  0  0  0
 18 19  2  0  0  0
 18 17  1  0  0  0
 18 20  1  0  0  0
 17 16  1  0  0  0
 20 21  1  0  0  0
 16 15  1  0  0  0
 15 14  1  0  0  0
 14 13  1  0  0  0
 13 12  1  0  0  0
 12  1  1  0  0  0
  1  2  1  0  0  0
  2  3  1  0  0  0
  3  4  1  0  0  0
  4  5  1  0  0  0
  5  6  1  0  0  0
  6  7  1  0  0  0
  7  8  1  0  0  0
  8  9  1  0  0  0
  9 10  1  0  0  0
 10 11  1  0  0  0
M  END
> <minimizedAffinity>
-6.73453

> <CNNscore>
0.8312197924

> <CNNaffinity>
6.5927553177

> <CNN_VS>
5.4800286293

> <CNNaffinity_variance>
0.4871203303

$$$$
/media/chris/experiments/cd1a-new-docking/inputs/ligands/4x6d_1_ligand.pdb


 21 20  0  0  0  0  0  0  0  0999 V2000
  -46.2022   59.6036   65.8298 C   0  0  0  0  0  0  0  0  0  0  0  0
  -47.6294   59.7003   65.3508 C   0  0  0  0  0  0  0  0  0  0  0  0
  -48.0687   60.8787   64.5910 C   0  0  0  0  0  0  0  0  0  0  0  0
  -49.4426   60.9101   63.9594 C   0  0  0  0  0  0  0  0  0  0  0  0
  -49.4128   60.2238   62.5943 C   0  0  0  0  0  0  0  0  0  0  0  0
  -49.9169   58.7836   62.6341 C   0  0  0  0  0  0  0  0  0  0  0  0
  -50.3416   58.2966   61.2462 C   0  0  0  0  0  0  0  0  0  0  0  0
  -49.3008   57.4384   60.5169 C   0  0  0  0  0  0  0  0  0  0  0  0
  -48.2754   58.2918   59.7588 C   0  0  0  0  0  0  0  0  0  0  0  0
  -47.5270   57.4992   58.6840 C   0  0  0  0  0  0  0  0  0  0  0  0
  -47.7257   55.9828   58.7963 C   0  0  0  0  0  0  0  0  0  0  0  0
  -45.3767   60.5821   65.0099 C   0  0  0  0  0  0  0  0  0  0  0  0
  -43.9012   60.2243   65.0221 C   0  0  0  0  0  0  0  0  0  0  0  0
  -43.4630   59.7441   66.4024 C   0  0  0  0  0  0  0  0  0  0  0  0
  -42.2424   58.8425   66.2812 C   0  0  0  0  0  0  0  0  0  0  0  0
  -40.9590   59.6358   66.4697 C   0  0  0  0  0  0  0  0  0  0  0  0
  -39.9739   59.3652   65.3371 C   0  0  0  0  0  0  0  0  0  0  0  0
  -38.6189   59.9476   65.6890 C   0  0  0  0  0  0  0  0  0  0  0  0
  -37.5789   59.2539   65.5515 O   0  0  0  0  0  0  0  0  0  0  0  0
  -38.5253   61.1243   66.1244 O   0  0  0  0  0  0  0  0  0  0  0  0
  -39.2955   61.6474   66.2297 H   0  0  0  0  0  0  0  0  0  0  0  0
 18 19  2  0  0  0
 18 17  1  0  0  0
 18 20  1  0  0  0
 17 16  1  0  0  0
 20 21  1  0  0  0
 16 15  1  0  0  0
 15 14  1  0  0  0
 14 13  1  0  0  0
 13 12  1  0  0  0
 12  1  1  0  0  0
  1  2  1  0  0  0
  2  3  1  0  0  0
  3  4  1  0  0  0
  4  5  1  0  0  0
  5  6  1  0  0  0
  6  7  1  0  0  0
  7  8  1  0  0  0
  8  9  1  0  0  0
  9 10  1  0  0  0
 10 11  1  0  0  0
M  END
> <minimizedAffinity>
-6.54791

> <CNNscore>
0.8233913779

> <CNNaffinity>
6.7085275650

> <CNN_VS>
5.5237436295

> <CNNaffinity_variance>
0.6715162396

$$$$
/media/chris/experiments/cd1a-new-docking/inputs/ligands/4x6d_1_ligand.pdb


 21 20  0  0  0  0  0  0  0  0999 V2000
  -49.9554   59.7249   64.9895 C   0  0  0  0  0  0  0  0  0  0  0  0
  -51.0141   60.1371   63.9970 C   0  0  0  0  0  0  0  0  0  0  0  0
  -51.1730   59.3888   62.7425 C   0  0  0  0  0  0  0  0  0  0  0  0
  -50.2469   58.2377   62.4188 C   0  0  0  0  0  0  0  0  0  0  0  0
  -50.6971   57.5418   61.1349 C   0  0  0  0  0  0  0  0  0  0  0  0
  -49.9797   58.0554   59.8893 C   0  0  0  0  0  0  0  0  0  0  0  0
  -48.4624   58.0967   60.0895 C   0  0  0  0  0  0  0  0  0  0  0  0
  -47.6422   57.5265   58.9260 C   0  0  0  0  0  0  0  0  0  0  0  0
  -47.9233   56.0358   58.6954 C   0  0  0  0  0  0  0  0  0  0  0  0
  -47.7562   55.6232   57.2306 C   0  0  0  0  0  0  0  0  0  0  0  0
  -47.8019   56.8059   56.2556 C   0  0  0  0  0  0  0  0  0  0  0  0
  -48.8483   60.7655   64.9368 C   0  0  0  0  0  0  0  0  0  0  0  0
  -47.4714   60.1266   64.9660 C   0  0  0  0  0  0  0  0  0  0  0  0
  -47.5669   58.6082   64.8503 C   0  0  0  0  0  0  0  0  0  0  0  0
  -46.9253   57.9482   66.0627 C   0  0  0  0  0  0  0  0  0  0  0  0
  -45.7298   57.1026   65.6530 C   0  0  0  0  0  0  0  0  0  0  0  0
  -44.9706   57.7470   64.4977 C   0  0  0  0  0  0  0  0  0  0  0  0
  -43.8582   58.6216   65.0425 C   0  0  0  0  0  0  0  0  0  0  0  0
  -43.2501   58.2885   66.0918 O   0  0  0  0  0  0  0  0  0  0  0  0
  -43.5391   59.6866   64.4535 O   0  0  0  0  0  0  0  0  0  0  0  0
  -43.9875   59.9416   63.6712 H   0  0  0  0  0  0  0  0  0  0  0  0
 18 19  2  0  0  0
 18 17  1  0  0  0
 18 20  1  0  0  0
 17 16  1  0  0  0
 20 21  1  0  0  0
 16 15  1  0  0  0
 15 14  1  0  0  0
 14 13  1  0  0  0
 13 12  1  0  0  0
 12  1  1  0  0  0
  1  2  1  0  0  0
  2  3  1  0  0  0
  3  4  1  0  0  0
  4  5  1  0  0  0
  5  6  1  0  0  0
  6  7  1  0  0  0
  7  8  1  0  0  0
  8  9  1  0  0  0
  9 10  1  0  0  0
 10 11  1  0  0  0
M  END
> <minimizedAffinity>
-7.02893

> <CNNscore>
0.7812343836

> <CNNaffinity>
6.7079238892

> <CNN_VS>
5.2404608727

> <CNNaffinity_variance>
0.6902058125

$$$$
/media/chris/experiments/cd1a-new-docking/inputs/ligands/4x6d_1_ligand.pdb


 21 20  0  0  0  0  0  0  0  0999 V2000
  -47.9509   59.5083   65.8142 C   0  0  0  0  0  0  0  0  0  0  0  0
  -48.2443   60.8140   65.1178 C   0  0  0  0  0  0  0  0  0  0  0  0
  -49.2205   60.8554   64.0204 C   0  0  0  0  0  0  0  0  0  0  0  0
  -50.6466   60.4077   64.2512 C   0  0  0  0  0  0  0  0  0  0  0  0
  -51.1770   59.6755   63.0192 C   0  0  0  0  0  0  0  0  0  0  0  0
  -50.4588   58.3561   62.7483 C   0  0  0  0  0  0  0  0  0  0  0  0
  -49.5091   58.4665   61.5526 C   0  0  0  0  0  0  0  0  0  0  0  0
  -49.9690   57.7235   60.2924 C   0  0  0  0  0  0  0  0  0  0  0  0
  -48.7876   57.1891   59.4718 C   0  0  0  0  0  0  0  0  0  0  0  0
  -47.8235   58.2954   59.0356 C   0  0  0  0  0  0  0  0  0  0  0  0
  -47.0574   57.9634   57.7494 C   0  0  0  0  0  0  0  0  0  0  0  0
  -46.9931   58.7239   64.9319 C   0  0  0  0  0  0  0  0  0  0  0  0
  -46.6168   57.3907   65.5533 C   0  0  0  0  0  0  0  0  0  0  0  0
  -45.1380   57.0820   65.3396 C   0  0  0  0  0  0  0  0  0  0  0  0
  -44.4178   58.3108   64.8022 C   0  0  0  0  0  0  0  0  0  0  0  0
  -43.3918   58.8208   65.8018 C   0  0  0  0  0  0  0  0  0  0  0  0
  -42.8077   60.1576   65.3567 C   0  0  0  0  0  0  0  0  0  0  0  0
  -42.0620   60.7986   66.5109 C   0  0  0  0  0  0  0  0  0  0  0  0
  -41.0441   61.5036   66.2906 O   0  0  0  0  0  0  0  0  0  0  0  0
  -42.4520   60.6268   67.6947 O   0  0  0  0  0  0  0  0  0  0  0  0
  -43.2095   60.1029   67.8669 H   0  0  0  0  0  0  0  0  0  0  0  0
 18 19  2  0  0  0
 18 17  1  0  0  0
 18 20  1  0  0  0
 17 16  1  0  0  0
 20 21  1  0  0  0
 16 15  1  0  0  0
 15 14  1  0  0  0
 14 13  1  0  0  0
 13 12  1  0  0  0
 12  1  1  0  0  0
  1  2  1  0  0  0
  2  3  1  0  0  0
  3  4  1  0  0  0
  4  5  1  0  0  0
  5  6  1  0  0  0
  6  7  1  0  0  0
  7  8  1  0  0  0
  8  9  1  0  0  0
  9 10  1  0  0  0
 10 11  1  0  0  0
M  END
> <minimizedAffinity>
-6.82402

> <CNNscore>
0.7702289820

> <CNNaffinity>
6.6763315201

> <CNN_VS>
5.1423039436

> <CNNaffinity_variance>
0.4859962463

$$$$
/media/chris/experiments/cd1a-new-docking/inputs/ligands/4x6d_1_ligand.pdb


 21 20  0  0  0  0  0  0  0  0999 V2000
  -50.7950   59.2419   63.1906 C   0  0  0  0  0  0  0  0  0  0  0  0
  -50.2485   58.8856   64.5508 C   0  0  0  0  0  0  0  0  0  0  0  0
  -48.8432   59.1691   64.8726 C   0  0  0  0  0  0  0  0  0  0  0  0
  -48.4896   59.9627   66.1106 C   0  0  0  0  0  0  0  0  0  0  0  0
  -47.0125   59.7755   66.4548 C   0  0  0  0  0  0  0  0  0  0  0  0
  -46.1663   59.3454   65.2595 C   0  0  0  0  0  0  0  0  0  0  0  0
  -44.6697   59.4115   65.5756 C   0  0  0  0  0  0  0  0  0  0  0  0
  -43.9322   60.6064   64.9593 C   0  0  0  0  0  0  0  0  0  0  0  0
  -42.9030   60.1716   63.9075 C   0  0  0  0  0  0  0  0  0  0  0  0
  -42.3288   61.3522   63.1201 C   0  0  0  0  0  0  0  0  0  0  0  0
  -41.1676   62.0540   63.8348 C   0  0  0  0  0  0  0  0  0  0  0  0
  -49.8503   58.6608   62.1509 C   0  0  0  0  0  0  0  0  0  0  0  0
  -50.5601   57.6915   61.2226 C   0  0  0  0  0  0  0  0  0  0  0  0
  -49.8796   57.6384   59.8580 C   0  0  0  0  0  0  0  0  0  0  0  0
  -48.4147   58.0322   59.9866 C   0  0  0  0  0  0  0  0  0  0  0  0
  -47.6260   57.6026   58.7596 C   0  0  0  0  0  0  0  0  0  0  0  0
  -48.0642   56.2227   58.2796 C   0  0  0  0  0  0  0  0  0  0  0  0
  -47.7822   56.0849   56.7962 C   0  0  0  0  0  0  0  0  0  0  0  0
  -48.0668   57.0243   56.0099 O   0  0  0  0  0  0  0  0  0  0  0  0
  -47.2673   55.0309   56.3412 O   0  0  0  0  0  0  0  0  0  0  0  0
  -47.0526   54.3266   56.9207 H   0  0  0  0  0  0  0  0  0  0  0  0
 18 19  2  0  0  0
 18 17  1  0  0  0
 18 20  1  0  0  0
 17 16  1  0  0  0
 20 21  1  0  0  0
 16 15  1  0  0  0
 15 14  1  0  0  0
 14 13  1  0  0  0
 13 12  1  0  0  0
 12  1  1  0  0  0
  1  2  1  0  0  0
  2  3  1  0  0  0
  3  4  1  0  0  0
  4  5  1  0  0  0
  5  6  1  0  0  0
  6  7  1  0  0  0
  7  8  1  0  0  0
  8  9  1  0  0  0
  9 10  1  0  0  0
 10 11  1  0  0  0
M  END
> <minimizedAffinity>
-7.05132

> <CNNscore>
0.7463026047

> <CNNaffinity>
6.8155264854

> <CNN_VS>
5.0864453316

> <CNNaffinity_variance>
0.6578229070

$$$$
