/media/chris/experiments/cd1a-new-docking/inputs/ligands/4x6d_1_ligand.pdb


 21 20  0  0  0  0  0  0  0  0999 V2000
  -47.5721   58.6491   64.7329 C   0  0  0  0  0  0  0  0  0  0  0  0
  -48.9780   58.4248   65.2321 C   0  0  0  0  0  0  0  0  0  0  0  0
  -49.8228   59.5748   65.5828 C   0  0  0  0  0  0  0  0  0  0  0  0
  -50.5035   60.3796   64.4982 C   0  0  0  0  0  0  0  0  0  0  0  0
  -50.9156   59.4680   63.3429 C   0  0  0  0  0  0  0  0  0  0  0  0
  -50.1229   59.7228   62.0637 C   0  0  0  0  0  0  0  0  0  0  0  0
  -49.3950   58.4615   61.5910 C   0  0  0  0  0  0  0  0  0  0  0  0
  -50.2407   57.5108   60.7352 C   0  0  0  0  0  0  0  0  0  0  0  0
  -49.9017   57.6188   59.2426 C   0  0  0  0  0  0  0  0  0  0  0  0
  -48.3937   57.6422   58.9800 C   0  0  0  0  0  0  0  0  0  0  0  0
  -47.7750   56.2444   58.8575 C   0  0  0  0  0  0  0  0  0  0  0  0
  -46.9849   59.8076   65.5230 C   0  0  0  0  0  0  0  0  0  0  0  0
  -45.9941   59.3316   66.5703 C   0  0  0  0  0  0  0  0  0  0  0  0
  -44.5571   59.5178   66.0928 C   0  0  0  0  0  0  0  0  0  0  0  0
  -44.5143   60.4947   64.9259 C   0  0  0  0  0  0  0  0  0  0  0  0
  -43.1119   60.5885   64.3458 C   0  0  0  0  0  0  0  0  0  0  0  0
  -42.0551   60.3894   65.4273 C   0  0  0  0  0  0  0  0  0  0  0  0
  -40.9378   61.3974   65.2410 C   0  0  0  0  0  0  0  0  0  0  0  0
  -40.3821   61.5235   64.1200 O   0  0  0  0  0  0  0  0  0  0  0  0
  -40.5562   62.1102   66.2052 O   0  0  0  0  0  0  0  0  0  0  0  0
  -40.9652   62.0221   67.0435 H   0  0  0  0  0  0  0  0  0  0  0  0
 18 19  2  0  0  0
 18 17  1  0  0  0
 18 20  1  0  0  0
 17 16  1  0  0  0
 20 21  1  0  0  0
 16 15  1  0  0  0
 15 14  1  0  0  0
 14 13  1  0  0  0
 13 12  1  0  0  0
 12  1  1  0  0  0
  1  2  1  0  0  0
  2  3  1  0  0  0
  3  4  1  0  0  0
  4  5  1  0  0  0
  5  6  1  0  0  0
  6  7  1  0  0  0
  7  8  1  0  0  0
  8  9  1  0  0  0
  9 10  1  0  0  0
 10 11  1  0  0  0
M  END
> <minimizedAffinity>
-6.79735

> <CNNscore>
0.8904672265

> <CNNaffinity>
6.8414931297

> <CNN_VS>
6.0921254158

> <CNNaffinity_variance>
0.7356308699

$$$$
/media/chris/experiments/cd1a-new-docking/inputs/ligands/4x6d_1_ligand.pdb


 21 20  0  0  0  0  0  0  0  0999 V2000
  -46.8914   58.3185   64.6158 C   0  0  0  0  0  0  0  0  0  0  0  0
  -47.5776   59.4119   65.3966 C   0  0  0  0  0  0  0  0  0  0  0  0
  -47.7163   60.7527   64.8120 C   0  0  0  0  0  0  0  0  0  0  0  0
  -49.0246   61.1792   64.1844 C   0  0  0  0  0  0  0  0  0  0  0  0
  -50.1436   60.2215   64.5918 C   0  0  0  0  0  0  0  0  0  0  0  0
  -51.0362   59.8082   63.4247 C   0  0  0  0  0  0  0  0  0  0  0  0
  -50.2236   59.1839   62.2871 C   0  0  0  0  0  0  0  0  0  0  0  0
  -50.8036   57.8835   61.7181 C   0  0  0  0  0  0  0  0  0  0  0  0
  -50.4081   57.6660   60.2516 C   0  0  0  0  0  0  0  0  0  0  0  0
  -48.9989   57.0875   60.0998 C   0  0  0  0  0  0  0  0  0  0  0  0
  -48.0416   58.0087   59.3340 C   0  0  0  0  0  0  0  0  0  0  0  0
  -45.6856   57.8665   65.4237 C   0  0  0  0  0  0  0  0  0  0  0  0
  -44.3804   58.1926   64.7198 C   0  0  0  0  0  0  0  0  0  0  0  0
  -43.8670   59.5713   65.1241 C   0  0  0  0  0  0  0  0  0  0  0  0
  -43.7709   59.6716   66.6402 C   0  0  0  0  0  0  0  0  0  0  0  0
  -42.4250   60.2384   67.0638 C   0  0  0  0  0  0  0  0  0  0  0  0
  -41.3299   59.8519   66.0751 C   0  0  0  0  0  0  0  0  0  0  0  0
  -40.3416   60.9934   65.9361 C   0  0  0  0  0  0  0  0  0  0  0  0
  -39.1597   60.7642   65.5723 O   0  0  0  0  0  0  0  0  0  0  0  0
  -40.6941   62.1749   66.1872 O   0  0  0  0  0  0  0  0  0  0  0  0
  -41.5728   62.3539   66.4587 H   0  0  0  0  0  0  0  0  0  0  0  0
 18 19  2  0  0  0
 18 17  1  0  0  0
 18 20  1  0  0  0
 17 16  1  0  0  0
 20 21  1  0  0  0
 16 15  1  0  0  0
 15 14  1  0  0  0
 14 13  1  0  0  0
 13 12  1  0  0  0
 12  1  1  0  0  0
  1  2  1  0  0  0
  2  3  1  0  0  0
  3  4  1  0  0  0
  4  5  1  0  0  0
  5  6  1  0  0  0
  6  7  1  0  0  0
  7  8  1  0  0  0
  8  9  1  0  0  0
  9 10  1  0  0  0
 10 11  1  0  0  0
M  END
> <minimizedAffinity>
-6.90122

> <CNNscore>
0.8658710122

> <CNNaffinity>
6.6777658463

> <CNN_VS>
5.7820839882

> <CNNaffinity_variance>
0.5552125573

$$$$
/media/chris/experiments/cd1a-new-docking/inputs/ligands/4x6d_1_ligand.pdb


 21 20  0  0  0  0  0  0  0  0999 V2000
  -46.8732   60.2543   65.0422 C   0  0  0  0  0  0  0  0  0  0  0  0
  -47.9900   61.2003   64.6767 C   0  0  0  0  0  0  0  0  0  0  0  0
  -48.9796   60.8085   63.6637 C   0  0  0  0  0  0  0  0  0  0  0  0
  -50.4111   60.5295   64.0642 C   0  0  0  0  0  0  0  0  0  0  0  0
  -51.1193   59.7288   62.9721 C   0  0  0  0  0  0  0  0  0  0  0  0
  -50.5257   58.3379   62.7653 C   0  0  0  0  0  0  0  0  0  0  0  0
  -50.9937   57.7156   61.4470 C   0  0  0  0  0  0  0  0  0  0  0  0
  -49.8666   57.2929   60.4971 C   0  0  0  0  0  0  0  0  0  0  0  0
  -48.7262   58.3188   60.4589 C   0  0  0  0  0  0  0  0  0  0  0  0
  -47.8434   58.1740   59.2166 C   0  0  0  0  0  0  0  0  0  0  0  0
  -47.7707   56.7374   58.6851 C   0  0  0  0  0  0  0  0  0  0  0  0
  -47.0729   59.8491   66.4938 C   0  0  0  0  0  0  0  0  0  0  0  0
  -45.8425   59.1658   67.0633 C   0  0  0  0  0  0  0  0  0  0  0  0
  -44.5871   59.5613   66.2918 C   0  0  0  0  0  0  0  0  0  0  0  0
  -43.5723   58.4269   66.3238 C   0  0  0  0  0  0  0  0  0  0  0  0
  -42.2017   58.9344   66.7433 C   0  0  0  0  0  0  0  0  0  0  0  0
  -42.1879   60.4557   66.8502 C   0  0  0  0  0  0  0  0  0  0  0  0
  -41.0984   61.0202   65.9593 C   0  0  0  0  0  0  0  0  0  0  0  0
  -40.6567   60.3428   64.9961 O   0  0  0  0  0  0  0  0  0  0  0  0
  -40.6261   62.1655   66.1790 O   0  0  0  0  0  0  0  0  0  0  0  0
  -40.9498   62.6764   66.8947 H   0  0  0  0  0  0  0  0  0  0  0  0
 18 19  2  0  0  0
 18 17  1  0  0  0
 18 20  1  0  0  0
 17 16  1  0  0  0
 20 21  1  0  0  0
 16 15  1  0  0  0
 15 14  1  0  0  0
 14 13  1  0  0  0
 13 12  1  0  0  0
 12  1  1  0  0  0
  1  2  1  0  0  0
  2  3  1  0  0  0
  3  4  1  0  0  0
  4  5  1  0  0  0
  5  6  1  0  0  0
  6  7  1  0  0  0
  7  8  1  0  0  0
  8  9  1  0  0  0
  9 10  1  0  0  0
 10 11  1  0  0  0
M  END
> <minimizedAffinity>
-7.21656

> <CNNscore>
0.8618710041

> <CNNaffinity>
6.6098451614

> <CNN_VS>
5.6968340874

> <CNNaffinity_variance>
0.4253837168

$$$$
/media/chris/experiments/cd1a-new-docking/inputs/ligands/4x6d_1_ligand.pdb


 21 20  0  0  0  0  0  0  0  0999 V2000
  -45.4170   59.4423   66.3640 C   0  0  0  0  0  0  0  0  0  0  0  0
  -46.8398   59.9072   66.1762 C   0  0  0  0  0  0  0  0  0  0  0  0
  -47.6681   59.3197   65.1142 C   0  0  0  0  0  0  0  0  0  0  0  0
  -48.5771   58.1492   65.4157 C   0  0  0  0  0  0  0  0  0  0  0  0
  -50.0333   58.6097   65.4661 C   0  0  0  0  0  0  0  0  0  0  0  0
  -50.2404   60.0123   64.9007 C   0  0  0  0  0  0  0  0  0  0  0  0
  -51.1698   59.9980   63.6841 C   0  0  0  0  0  0  0  0  0  0  0  0
  -50.5199   59.5169   62.3812 C   0  0  0  0  0  0  0  0  0  0  0  0
  -50.9644   58.0982   62.0018 C   0  0  0  0  0  0  0  0  0  0  0  0
  -49.9781   57.4026   61.0600 C   0  0  0  0  0  0  0  0  0  0  0  0
  -50.0855   57.8784   59.6061 C   0  0  0  0  0  0  0  0  0  0  0  0
  -44.8836   59.0373   64.9993 C   0  0  0  0  0  0  0  0  0  0  0  0
  -44.2958   57.6375   65.0158 C   0  0  0  0  0  0  0  0  0  0  0  0
  -43.1021   57.5533   65.9622 C   0  0  0  0  0  0  0  0  0  0  0  0
  -42.0716   58.6147   65.6028 C   0  0  0  0  0  0  0  0  0  0  0  0
  -41.6115   59.3678   66.8411 C   0  0  0  0  0  0  0  0  0  0  0  0
  -41.8293   60.8692   66.6841 C   0  0  0  0  0  0  0  0  0  0  0  0
  -40.7304   61.4569   65.8203 C   0  0  0  0  0  0  0  0  0  0  0  0
  -39.5235   61.2680   66.1192 O   0  0  0  0  0  0  0  0  0  0  0  0
  -41.0169   62.1399   64.8031 O   0  0  0  0  0  0  0  0  0  0  0  0
  -41.9136   62.2852   64.5738 H   0  0  0  0  0  0  0  0  0  0  0  0
 18 19  2  0  0  0
 18 17  1  0  0  0
 18 20  1  0  0  0
 17 16  1  0  0  0
 20 21  1  0  0  0
 16 15  1  0  0  0
 15 14  1  0  0  0
 14 13  1  0  0  0
 13 12  1  0  0  0
 12  1  1  0  0  0
  1  2  1  0  0  0
  2  3  1  0  0  0
  3  4  1  0  0  0
  4  5  1  0  0  0
  5  6  1  0  0  0
  6  7  1  0  0  0
  7  8  1  0  0  0
  8  9  1  0  0  0
  9 10  1  0  0  0
 10 11  1  0  0  0
M  END
> <minimizedAffinity>
-6.85422

> <CNNscore>
0.8064548373

> <CNNaffinity>
6.5126953125

> <CNN_VS>
5.2521944046

> <CNNaffinity_variance>
0.4193883538

$$$$
/media/chris/experiments/cd1a-new-docking/inputs/ligands/4x6d_1_ligand.pdb


 21 20  0  0  0  0  0  0  0  0999 V2000
  -43.1742   58.3831   66.4589 C   0  0  0  0  0  0  0  0  0  0  0  0
  -43.3834   57.8134   65.0778 C   0  0  0  0  0  0  0  0  0  0  0  0
  -44.7453   57.5523   64.5919 C   0  0  0  0  0  0  0  0  0  0  0  0
  -45.8799   58.4787   64.9686 C   0  0  0  0  0  0  0  0  0  0  0  0
  -46.9338   57.7228   65.7769 C   0  0  0  0  0  0  0  0  0  0  0  0
  -48.3140   57.7347   65.1255 C   0  0  0  0  0  0  0  0  0  0  0  0
  -48.3037   58.4952   63.7967 C   0  0  0  0  0  0  0  0  0  0  0  0
  -49.5410   59.3643   63.5411 C   0  0  0  0  0  0  0  0  0  0  0  0
  -50.6438   58.5976   62.7992 C   0  0  0  0  0  0  0  0  0  0  0  0
  -50.3967   58.5209   61.2903 C   0  0  0  0  0  0  0  0  0  0  0  0
  -50.3678   57.0861   60.7500 C   0  0  0  0  0  0  0  0  0  0  0  0
  -41.9000   59.2116   66.4243 C   0  0  0  0  0  0  0  0  0  0  0  0
  -41.1936   59.1047   65.0846 C   0  0  0  0  0  0  0  0  0  0  0  0
  -39.6830   59.2449   65.2466 C   0  0  0  0  0  0  0  0  0  0  0  0
  -38.9679   58.1494   64.4681 C   0  0  0  0  0  0  0  0  0  0  0  0
  -37.4867   58.1169   64.8103 C   0  0  0  0  0  0  0  0  0  0  0  0
  -36.9565   59.5190   65.0918 C   0  0  0  0  0  0  0  0  0  0  0  0
  -36.5007   60.1620   63.7964 C   0  0  0  0  0  0  0  0  0  0  0  0
  -35.6969   59.5582   63.0409 O   0  0  0  0  0  0  0  0  0  0  0  0
  -36.9185   61.3033   63.4707 O   0  0  0  0  0  0  0  0  0  0  0  0
  -37.5175   61.7596   64.0283 H   0  0  0  0  0  0  0  0  0  0  0  0
 18 19  2  0  0  0
 18 17  1  0  0  0
 18 20  1  0  0  0
 17 16  1  0  0  0
 20 21  1  0  0  0
 16 15  1  0  0  0
 15 14  1  0  0  0
 14 13  1  0  0  0
 13 12  1  0  0  0
 12  1  1  0  0  0
  1  2  1  0  0  0
  2  3  1  0  0  0
  3  4  1  0  0  0
  4  5  1  0  0  0
  5  6  1  0  0  0
  6  7  1  0  0  0
  7  8  1  0  0  0
  8  9  1  0  0  0
  9 10  1  0  0  0
 10 11  1  0  0  0
M  END
> <minimizedAffinity>
-6.36806

> <CNNscore>
0.7134722471

> <CNNaffinity>
6.4424591064

> <CNN_VS>
4.5965156555

> <CNNaffinity_variance>
0.4750279486

$$$$
/media/chris/experiments/cd1a-new-docking/inputs/ligands/4x6d_1_ligand.pdb


 21 20  0  0  0  0  0  0  0  0999 V2000
  -44.8787   58.1925   64.7003 C   0  0  0  0  0  0  0  0  0  0  0  0
  -45.2777   57.2830   65.8359 C   0  0  0  0  0  0  0  0  0  0  0  0
  -46.6119   57.4062   66.4388 C   0  0  0  0  0  0  0  0  0  0  0  0
  -47.8412   56.9927   65.6608 C   0  0  0  0  0  0  0  0  0  0  0  0
  -48.8619   58.1299   65.6410 C   0  0  0  0  0  0  0  0  0  0  0  0
  -48.5328   59.2156   64.6199 C   0  0  0  0  0  0  0  0  0  0  0  0
  -48.3828   58.6370   63.2103 C   0  0  0  0  0  0  0  0  0  0  0  0
  -49.7029   58.2896   62.5116 C   0  0  0  0  0  0  0  0  0  0  0  0
  -49.7286   58.7652   61.0529 C   0  0  0  0  0  0  0  0  0  0  0  0
  -49.3053   57.6721   60.0682 C   0  0  0  0  0  0  0  0  0  0  0  0
  -47.9991   57.9898   59.3302 C   0  0  0  0  0  0  0  0  0  0  0  0
  -44.8762   59.6163   65.2331 C   0  0  0  0  0  0  0  0  0  0  0  0
  -43.4734   60.1940   65.2929 C   0  0  0  0  0  0  0  0  0  0  0  0
  -42.8959   60.0913   66.7013 C   0  0  0  0  0  0  0  0  0  0  0  0
  -41.7516   59.0875   66.7273 C   0  0  0  0  0  0  0  0  0  0  0  0
  -41.2848   58.7578   65.3182 C   0  0  0  0  0  0  0  0  0  0  0  0
  -39.7981   59.0525   65.1484 C   0  0  0  0  0  0  0  0  0  0  0  0
  -39.5690   60.5513   65.1702 C   0  0  0  0  0  0  0  0  0  0  0  0
  -39.0446   61.0949   66.1757 O   0  0  0  0  0  0  0  0  0  0  0  0
  -39.9051   61.2610   64.1871 O   0  0  0  0  0  0  0  0  0  0  0  0
  -40.2965   60.8635   63.4344 H   0  0  0  0  0  0  0  0  0  0  0  0
 18 19  2  0  0  0
 18 17  1  0  0  0
 18 20  1  0  0  0
 17 16  1  0  0  0
 20 21  1  0  0  0
 16 15  1  0  0  0
 15 14  1  0  0  0
 14 13  1  0  0  0
 13 12  1  0  0  0
 12  1  1  0  0  0
  1  2  1  0  0  0
  2  3  1  0  0  0
  3  4  1  0  0  0
  4  5  1  0  0  0
  5  6  1  0  0  0
  6  7  1  0  0  0
  7  8  1  0  0  0
  8  9  1  0  0  0
  9 10  1  0  0  0
 10 11  1  0  0  0
M  END
> <minimizedAffinity>
-6.49824

> <CNNscore>
0.6888047457

> <CNNaffinity>
6.5141792297

> <CNN_VS>
4.4869976044

> <CNNaffinity_variance>
0.3983539939

$$$$
/media/chris/experiments/cd1a-new-docking/inputs/ligands/4x6d_1_ligand.pdb


 21 20  0  0  0  0  0  0  0  0999 V2000
  -45.4229   60.5916   65.0583 C   0  0  0  0  0  0  0  0  0  0  0  0
  -46.8524   60.1975   65.3359 C   0  0  0  0  0  0  0  0  0  0  0  0
  -47.9503   61.0760   64.9096 C   0  0  0  0  0  0  0  0  0  0  0  0
  -48.8747   60.6526   63.7899 C   0  0  0  0  0  0  0  0  0  0  0  0
  -48.5483   59.2275   63.3450 C   0  0  0  0  0  0  0  0  0  0  0  0
  -49.7826   58.3379   63.2232 C   0  0  0  0  0  0  0  0  0  0  0  0
  -50.4878   58.5333   61.8783 C   0  0  0  0  0  0  0  0  0  0  0  0
  -49.5622   58.8985   60.7115 C   0  0  0  0  0  0  0  0  0  0  0  0
  -49.5902   57.8431   59.5979 C   0  0  0  0  0  0  0  0  0  0  0  0
  -48.1891   57.4440   59.1277 C   0  0  0  0  0  0  0  0  0  0  0  0
  -48.0058   55.9290   58.9769 C   0  0  0  0  0  0  0  0  0  0  0  0
  -44.5725   59.3361   65.1659 C   0  0  0  0  0  0  0  0  0  0  0  0
  -43.3185   59.4293   64.3151 C   0  0  0  0  0  0  0  0  0  0  0  0
  -42.8926   60.8814   64.1203 C   0  0  0  0  0  0  0  0  0  0  0  0
  -41.9561   60.9978   62.9257 C   0  0  0  0  0  0  0  0  0  0  0  0
  -40.5132   61.1554   63.3787 C   0  0  0  0  0  0  0  0  0  0  0  0
  -39.6400   60.0296   62.8344 C   0  0  0  0  0  0  0  0  0  0  0  0
  -38.8478   60.5290   61.6419 C   0  0  0  0  0  0  0  0  0  0  0  0
  -39.3781   60.5648   60.5021 O   0  0  0  0  0  0  0  0  0  0  0  0
  -37.6556   60.9062   61.7824 O   0  0  0  0  0  0  0  0  0  0  0  0
  -37.2534   60.8825   62.6283 H   0  0  0  0  0  0  0  0  0  0  0  0
 18 19  2  0  0  0
 18 17  1  0  0  0
 18 20  1  0  0  0
 17 16  1  0  0  0
 20 21  1  0  0  0
 16 15  1  0  0  0
 15 14  1  0  0  0
 14 13  1  0  0  0
 13 12  1  0  0  0
 12  1  1  0  0  0
  1  2  1  0  0  0
  2  3  1  0  0  0
  3  4  1  0  0  0
  4  5  1  0  0  0
  5  6  1  0  0  0
  6  7  1  0  0  0
  7  8  1  0  0  0
  8  9  1  0  0  0
  9 10  1  0  0  0
 10 11  1  0  0  0
M  END
> <minimizedAffinity>
-6.57698

> <CNNscore>
0.6644305587

> <CNNaffinity>
6.3132801056

> <CNN_VS>
4.1947360039

> <CNNaffinity_variance>
0.3411860764

$$$$
/media/chris/experiments/cd1a-new-docking/inputs/ligands/4x6d_1_ligand.pdb


 21 20  0  0  0  0  0  0  0  0999 V2000
  -45.1061   60.5766   65.0237 C   0  0  0  0  0  0  0  0  0  0  0  0
  -46.4825   60.2365   65.5391 C   0  0  0  0  0  0  0  0  0  0  0  0
  -47.5311   59.8114   64.6018 C   0  0  0  0  0  0  0  0  0  0  0  0
  -48.8544   60.5422   64.5556 C   0  0  0  0  0  0  0  0  0  0  0  0
  -49.3870   60.5820   63.1238 C   0  0  0  0  0  0  0  0  0  0  0  0
  -50.8046   60.0314   62.9940 C   0  0  0  0  0  0  0  0  0  0  0  0
  -50.8018   58.5223   62.7358 C   0  0  0  0  0  0  0  0  0  0  0  0
  -49.7880   58.0489   61.6871 C   0  0  0  0  0  0  0  0  0  0  0  0
  -50.4684   57.5800   60.3942 C   0  0  0  0  0  0  0  0  0  0  0  0
  -49.5040   57.5234   59.2067 C   0  0  0  0  0  0  0  0  0  0  0  0
  -48.1633   58.2170   59.4773 C   0  0  0  0  0  0  0  0  0  0  0  0
  -44.2450   59.3313   65.1607 C   0  0  0  0  0  0  0  0  0  0  0  0
  -43.8653   59.0640   66.6062 C   0  0  0  0  0  0  0  0  0  0  0  0
  -42.9051   60.1285   67.1285 C   0  0  0  0  0  0  0  0  0  0  0  0
  -41.5910   60.0713   66.3620 C   0  0  0  0  0  0  0  0  0  0  0  0
  -41.0850   61.4695   66.0443 C   0  0  0  0  0  0  0  0  0  0  0  0
  -41.1993   61.7701   64.5534 C   0  0  0  0  0  0  0  0  0  0  0  0
  -40.1164   61.0247   63.7978 C   0  0  0  0  0  0  0  0  0  0  0  0
  -38.9613   60.9253   64.2851 O   0  0  0  0  0  0  0  0  0  0  0  0
  -40.3633   60.5053   62.6787 O   0  0  0  0  0  0  0  0  0  0  0  0
  -41.2213   60.5751   62.3090 H   0  0  0  0  0  0  0  0  0  0  0  0
 18 19  2  0  0  0
 18 17  1  0  0  0
 18 20  1  0  0  0
 17 16  1  0  0  0
 20 21  1  0  0  0
 16 15  1  0  0  0
 15 14  1  0  0  0
 14 13  1  0  0  0
 13 12  1  0  0  0
 12  1  1  0  0  0
  1  2  1  0  0  0
  2  3  1  0  0  0
  3  4  1  0  0  0
  4  5  1  0  0  0
  5  6  1  0  0  0
  6  7  1  0  0  0
  7  8  1  0  0  0
  8  9  1  0  0  0
  9 10  1  0  0  0
 10 11  1  0  0  0
M  END
> <minimizedAffinity>
-6.52578

> <CNNscore>
0.6598992348

> <CNNaffinity>
6.2592735291

> <CNN_VS>
4.1304898262

> <CNNaffinity_variance>
0.5241426229

$$$$
/media/chris/experiments/cd1a-new-docking/inputs/ligands/4x6d_1_ligand.pdb


 21 20  0  0  0  0  0  0  0  0999 V2000
  -48.8491   59.5819   65.2560 C   0  0  0  0  0  0  0  0  0  0  0  0
  -50.3425   59.4324   65.1033 C   0  0  0  0  0  0  0  0  0  0  0  0
  -51.0550   60.2070   64.0781 C   0  0  0  0  0  0  0  0  0  0  0  0
  -51.0616   59.7422   62.6388 C   0  0  0  0  0  0  0  0  0  0  0  0
  -50.6231   58.2808   62.5530 C   0  0  0  0  0  0  0  0  0  0  0  0
  -51.1777   57.5574   61.3288 C   0  0  0  0  0  0  0  0  0  0  0  0
  -50.2810   57.7541   60.1035 C   0  0  0  0  0  0  0  0  0  0  0  0
  -48.7951   57.4557   60.3368 C   0  0  0  0  0  0  0  0  0  0  0  0
  -48.2053   56.5594   59.2398 C   0  0  0  0  0  0  0  0  0  0  0  0
  -46.8835   57.0972   58.6855 C   0  0  0  0  0  0  0  0  0  0  0  0
  -47.0660   58.2223   57.6596 C   0  0  0  0  0  0  0  0  0  0  0  0
  -48.3311   58.3286   65.9429 C   0  0  0  0  0  0  0  0  0  0  0  0
  -46.8159   58.2446   65.8962 C   0  0  0  0  0  0  0  0  0  0  0  0
  -46.1776   59.5332   66.4059 C   0  0  0  0  0  0  0  0  0  0  0  0
  -45.4622   60.2499   65.2692 C   0  0  0  0  0  0  0  0  0  0  0  0
  -43.9571   60.2460   65.4852 C   0  0  0  0  0  0  0  0  0  0  0  0
  -43.2653   59.2914   64.5175 C   0  0  0  0  0  0  0  0  0  0  0  0
  -42.5561   58.2005   65.2961 C   0  0  0  0  0  0  0  0  0  0  0  0
  -43.2057   57.2220   65.7457 O   0  0  0  0  0  0  0  0  0  0  0  0
  -41.3166   58.2680   65.5016 O   0  0  0  0  0  0  0  0  0  0  0  0
  -40.8257   58.9939   65.1699 H   0  0  0  0  0  0  0  0  0  0  0  0
 18 19  2  0  0  0
 18 17  1  0  0  0
 18 20  1  0  0  0
 17 16  1  0  0  0
 20 21  1  0  0  0
 16 15  1  0  0  0
 15 14  1  0  0  0
 14 13  1  0  0  0
 13 12  1  0  0  0
 12  1  1  0  0  0
  1  2  1  0  0  0
  2  3  1  0  0  0
  3  4  1  0  0  0
  4  5  1  0  0  0
  5  6  1  0  0  0
  6  7  1  0  0  0
  7  8  1  0  0  0
  8  9  1  0  0  0
  9 10  1  0  0  0
 10 11  1  0  0  0
M  END
> <minimizedAffinity>
-6.79735

> <CNNscore>
0.6578501463

> <CNNaffinity>
6.5017638206

> <CNN_VS>
4.2771863937

> <CNNaffinity_variance>
0.4184148908

$$$$
