/media/chris/experiments/cd1a-new-docking/inputs/ligands/4x6d_1_ligand.pdb


 21 20  0  0  0  0  0  0  0  0999 V2000
  -48.9283   60.0245   65.8195 C   0  0  0  0  0  0  0  0  0  0  0  0
  -49.5930   60.4484   64.5333 C   0  0  0  0  0  0  0  0  0  0  0  0
  -49.1076   59.9225   63.2501 C   0  0  0  0  0  0  0  0  0  0  0  0
  -48.8399   58.4431   63.0847 C   0  0  0  0  0  0  0  0  0  0  0  0
  -49.7505   57.8583   62.0057 C   0  0  0  0  0  0  0  0  0  0  0  0
  -49.7373   58.6610   60.7076 C   0  0  0  0  0  0  0  0  0  0  0  0
  -49.9482   57.7616   59.4867 C   0  0  0  0  0  0  0  0  0  0  0  0
  -48.8394   56.7301   59.2458 C   0  0  0  0  0  0  0  0  0  0  0  0
  -47.4553   57.3831   59.1344 C   0  0  0  0  0  0  0  0  0  0  0  0
  -47.1974   57.9872   57.7515 C   0  0  0  0  0  0  0  0  0  0  0  0
  -47.5755   57.0505   56.5976 C   0  0  0  0  0  0  0  0  0  0  0  0
  -47.5510   60.6670   65.8565 C   0  0  0  0  0  0  0  0  0  0  0  0
  -46.4518   59.6355   66.0378 C   0  0  0  0  0  0  0  0  0  0  0  0
  -45.1568   60.0884   65.3700 C   0  0  0  0  0  0  0  0  0  0  0  0
  -43.9898   59.2432   65.8610 C   0  0  0  0  0  0  0  0  0  0  0  0
  -42.9946   60.0893   66.6393 C   0  0  0  0  0  0  0  0  0  0  0  0
  -41.5893   59.9554   66.0617 C   0  0  0  0  0  0  0  0  0  0  0  0
  -41.1394   61.2897   65.4992 C   0  0  0  0  0  0  0  0  0  0  0  0
  -41.5323   61.6606   64.3636 O   0  0  0  0  0  0  0  0  0  0  0  0
  -40.3679   62.0318   66.1605 O   0  0  0  0  0  0  0  0  0  0  0  0
  -40.0706   61.7625   67.0073 H   0  0  0  0  0  0  0  0  0  0  0  0
 18 19  2  0  0  0
 18 17  1  0  0  0
 18 20  1  0  0  0
 17 16  1  0  0  0
 20 21  1  0  0  0
 16 15  1  0  0  0
 15 14  1  0  0  0
 14 13  1  0  0  0
 13 12  1  0  0  0
 12  1  1  0  0  0
  1  2  1  0  0  0
  2  3  1  0  0  0
  3  4  1  0  0  0
  4  5  1  0  0  0
  5  6  1  0  0  0
  6  7  1  0  0  0
  7  8  1  0  0  0
  8  9  1  0  0  0
  9 10  1  0  0  0
 10 11  1  0  0  0
M  END
> <minimizedAffinity>
-6.90013

> <CNNscore>
0.8971267939

> <CNNaffinity>
6.6484136581

> <CNN_VS>
5.9644699097

> <CNNaffinity_variance>
0.5689791441

$$$$
/media/chris/experiments/cd1a-new-docking/inputs/ligands/4x6d_1_ligand.pdb


 21 20  0  0  0  0  0  0  0  0999 V2000
  -46.4520   60.4498   65.1372 C   0  0  0  0  0  0  0  0  0  0  0  0
  -47.9477   60.5946   65.2702 C   0  0  0  0  0  0  0  0  0  0  0  0
  -48.7286   59.5444   65.9384 C   0  0  0  0  0  0  0  0  0  0  0  0
  -50.0343   59.0687   65.3415 C   0  0  0  0  0  0  0  0  0  0  0  0
  -50.6793   60.1859   64.5222 C   0  0  0  0  0  0  0  0  0  0  0  0
  -51.1778   59.7195   63.1570 C   0  0  0  0  0  0  0  0  0  0  0  0
  -50.3445   58.5520   62.6215 C   0  0  0  0  0  0  0  0  0  0  0  0
  -51.0345   57.7080   61.5431 C   0  0  0  0  0  0  0  0  0  0  0  0
  -50.1116   57.4257   60.3502 C   0  0  0  0  0  0  0  0  0  0  0  0
  -48.6769   57.9043   60.5879 C   0  0  0  0  0  0  0  0  0  0  0  0
  -47.8356   57.9667   59.3073 C   0  0  0  0  0  0  0  0  0  0  0  0
  -46.1449   58.9664   65.0099 C   0  0  0  0  0  0  0  0  0  0  0  0
  -44.6525   58.6924   65.0629 C   0  0  0  0  0  0  0  0  0  0  0  0
  -44.1786   58.5035   66.5009 C   0  0  0  0  0  0  0  0  0  0  0  0
  -42.6669   58.3279   66.5362 C   0  0  0  0  0  0  0  0  0  0  0  0
  -41.9603   59.6693   66.4209 C   0  0  0  0  0  0  0  0  0  0  0  0
  -41.0601   59.7126   65.1904 C   0  0  0  0  0  0  0  0  0  0  0  0
  -40.2921   61.0198   65.1655 C   0  0  0  0  0  0  0  0  0  0  0  0
  -40.3865   61.8255   66.1264 O   0  0  0  0  0  0  0  0  0  0  0  0
  -39.5603   61.3095   64.1838 O   0  0  0  0  0  0  0  0  0  0  0  0
  -39.4848   60.7145   63.4639 H   0  0  0  0  0  0  0  0  0  0  0  0
 18 19  2  0  0  0
 18 17  1  0  0  0
 18 20  1  0  0  0
 17 16  1  0  0  0
 20 21  1  0  0  0
 16 15  1  0  0  0
 15 14  1  0  0  0
 14 13  1  0  0  0
 13 12  1  0  0  0
 12  1  1  0  0  0
  1  2  1  0  0  0
  2  3  1  0  0  0
  3  4  1  0  0  0
  4  5  1  0  0  0
  5  6  1  0  0  0
  6  7  1  0  0  0
  7  8  1  0  0  0
  8  9  1  0  0  0
  9 10  1  0  0  0
 10 11  1  0  0  0
M  END
> <minimizedAffinity>
-6.92952

> <CNNscore>
0.8893766403

> <CNNaffinity>
6.7494287491

> <CNN_VS>
6.0027842522

> <CNNaffinity_variance>
0.6703252196

$$$$
/media/chris/experiments/cd1a-new-docking/inputs/ligands/4x6d_1_ligand.pdb


 21 20  0  0  0  0  0  0  0  0999 V2000
  -47.4757   60.6757   65.0574 C   0  0  0  0  0  0  0  0  0  0  0  0
  -48.6541   60.0386   65.7513 C   0  0  0  0  0  0  0  0  0  0  0  0
  -49.6481   59.2910   64.9690 C   0  0  0  0  0  0  0  0  0  0  0  0
  -50.8462   60.0018   64.3801 C   0  0  0  0  0  0  0  0  0  0  0  0
  -50.8453   59.8673   62.8579 C   0  0  0  0  0  0  0  0  0  0  0  0
  -49.6805   60.5938   62.1906 C   0  0  0  0  0  0  0  0  0  0  0  0
  -49.3792   60.0204   60.8033 C   0  0  0  0  0  0  0  0  0  0  0  0
  -49.1511   58.5044   60.7673 C   0  0  0  0  0  0  0  0  0  0  0  0
  -49.7747   57.8544   59.5251 C   0  0  0  0  0  0  0  0  0  0  0  0
  -48.7466   57.1084   58.6704 C   0  0  0  0  0  0  0  0  0  0  0  0
  -47.4809   57.9267   58.3876 C   0  0  0  0  0  0  0  0  0  0  0  0
  -46.3026   59.7157   65.1725 C   0  0  0  0  0  0  0  0  0  0  0  0
  -44.9712   60.4327   65.0360 C   0  0  0  0  0  0  0  0  0  0  0  0
  -43.8160   59.5347   65.4686 C   0  0  0  0  0  0  0  0  0  0  0  0
  -43.5680   59.6823   66.9633 C   0  0  0  0  0  0  0  0  0  0  0  0
  -42.0857   59.8558   67.2545 C   0  0  0  0  0  0  0  0  0  0  0  0
  -41.2683   59.8513   65.9668 C   0  0  0  0  0  0  0  0  0  0  0  0
  -40.2643   60.9872   65.9955 C   0  0  0  0  0  0  0  0  0  0  0  0
  -39.0349   60.7456   65.8866 O   0  0  0  0  0  0  0  0  0  0  0  0
  -40.6521   62.1762   66.1328 O   0  0  0  0  0  0  0  0  0  0  0  0
  -41.5664   62.3644   66.2146 H   0  0  0  0  0  0  0  0  0  0  0  0
 18 19  2  0  0  0
 18 17  1  0  0  0
 18 20  1  0  0  0
 17 16  1  0  0  0
 20 21  1  0  0  0
 16 15  1  0  0  0
 15 14  1  0  0  0
 14 13  1  0  0  0
 13 12  1  0  0  0
 12  1  1  0  0  0
  1  2  1  0  0  0
  2  3  1  0  0  0
  3  4  1  0  0  0
  4  5  1  0  0  0
  5  6  1  0  0  0
  6  7  1  0  0  0
  7  8  1  0  0  0
  8  9  1  0  0  0
  9 10  1  0  0  0
 10 11  1  0  0  0
M  END
> <minimizedAffinity>
-7.15459

> <CNNscore>
0.8356534243

> <CNNaffinity>
6.5257825851

> <CNN_VS>
5.4532923698

> <CNNaffinity_variance>
0.4233004451

$$$$
/media/chris/experiments/cd1a-new-docking/inputs/ligands/4x6d_1_ligand.pdb


 21 20  0  0  0  0  0  0  0  0999 V2000
  -43.5661   60.0414   65.1020 C   0  0  0  0  0  0  0  0  0  0  0  0
  -44.9680   59.5039   65.2496 C   0  0  0  0  0  0  0  0  0  0  0  0
  -45.5479   59.3284   66.5882 C   0  0  0  0  0  0  0  0  0  0  0  0
  -46.8864   58.6444   66.7555 C   0  0  0  0  0  0  0  0  0  0  0  0
  -47.7987   58.9712   65.5739 C   0  0  0  0  0  0  0  0  0  0  0  0
  -49.1254   58.2175   65.6120 C   0  0  0  0  0  0  0  0  0  0  0  0
  -50.3186   59.1715   65.5106 C   0  0  0  0  0  0  0  0  0  0  0  0
  -50.1991   60.2405   64.4177 C   0  0  0  0  0  0  0  0  0  0  0  0
  -51.1639   59.9869   63.2517 C   0  0  0  0  0  0  0  0  0  0  0  0
  -50.7471   58.7920   62.3901 C   0  0  0  0  0  0  0  0  0  0  0  0
  -49.6634   59.1326   61.3598 C   0  0  0  0  0  0  0  0  0  0  0  0
  -42.9612   60.1312   66.4938 C   0  0  0  0  0  0  0  0  0  0  0  0
  -41.4642   59.8792   66.4759 C   0  0  0  0  0  0  0  0  0  0  0  0
  -41.1040   58.7753   65.4861 C   0  0  0  0  0  0  0  0  0  0  0  0
  -39.9534   59.2238   64.5959 C   0  0  0  0  0  0  0  0  0  0  0  0
  -38.7260   58.3530   64.8131 C   0  0  0  0  0  0  0  0  0  0  0  0
  -37.5586   58.8238   63.9516 C   0  0  0  0  0  0  0  0  0  0  0  0
  -37.2797   60.2887   64.2264 C   0  0  0  0  0  0  0  0  0  0  0  0
  -37.1065   60.6875   65.4064 O   0  0  0  0  0  0  0  0  0  0  0  0
  -37.2241   61.1147   63.2789 O   0  0  0  0  0  0  0  0  0  0  0  0
  -37.3521   60.8254   62.3969 H   0  0  0  0  0  0  0  0  0  0  0  0
 18 19  2  0  0  0
 18 17  1  0  0  0
 18 20  1  0  0  0
 17 16  1  0  0  0
 20 21  1  0  0  0
 16 15  1  0  0  0
 15 14  1  0  0  0
 14 13  1  0  0  0
 13 12  1  0  0  0
 12  1  1  0  0  0
  1  2  1  0  0  0
  2  3  1  0  0  0
  3  4  1  0  0  0
  4  5  1  0  0  0
  5  6  1  0  0  0
  6  7  1  0  0  0
  7  8  1  0  0  0
  8  9  1  0  0  0
  9 10  1  0  0  0
 10 11  1  0  0  0
M  END
> <minimizedAffinity>
-6.37312

> <CNNscore>
0.8083559275

> <CNNaffinity>
6.4501280785

> <CNN_VS>
5.2139992714

> <CNNaffinity_variance>
0.4380066395

$$$$
/media/chris/experiments/cd1a-new-docking/inputs/ligands/4x6d_1_ligand.pdb


 21 20  0  0  0  0  0  0  0  0999 V2000
  -49.7940   58.3380   65.2150 C   0  0  0  0  0  0  0  0  0  0  0  0
  -50.5133   59.6594   65.3274 C   0  0  0  0  0  0  0  0  0  0  0  0
  -51.1220   60.2656   64.1354 C   0  0  0  0  0  0  0  0  0  0  0  0
  -50.9336   59.6298   62.7761 C   0  0  0  0  0  0  0  0  0  0  0  0
  -49.9270   60.4317   61.9520 C   0  0  0  0  0  0  0  0  0  0  0  0
  -49.1661   59.5812   60.9384 C   0  0  0  0  0  0  0  0  0  0  0  0
  -49.8925   58.2648   60.6493 C   0  0  0  0  0  0  0  0  0  0  0  0
  -49.4498   57.5520   59.3658 C   0  0  0  0  0  0  0  0  0  0  0  0
  -47.9288   57.3581   59.3062 C   0  0  0  0  0  0  0  0  0  0  0  0
  -47.2990   58.0085   58.0716 C   0  0  0  0  0  0  0  0  0  0  0  0
  -47.4950   57.1940   56.7872 C   0  0  0  0  0  0  0  0  0  0  0  0
  -48.3756   58.5442   65.7215 C   0  0  0  0  0  0  0  0  0  0  0  0
  -47.5856   57.2476   65.7308 C   0  0  0  0  0  0  0  0  0  0  0  0
  -46.1435   57.4853   66.1685 C   0  0  0  0  0  0  0  0  0  0  0  0
  -45.2657   57.7605   64.9556 C   0  0  0  0  0  0  0  0  0  0  0  0
  -43.9801   56.9510   65.0193 C   0  0  0  0  0  0  0  0  0  0  0  0
  -43.0738   57.4461   66.1418 C   0  0  0  0  0  0  0  0  0  0  0  0
  -42.6374   58.8697   65.8551 C   0  0  0  0  0  0  0  0  0  0  0  0
  -41.9815   59.1312   64.8145 O   0  0  0  0  0  0  0  0  0  0  0  0
  -42.9233   59.7967   66.6564 O   0  0  0  0  0  0  0  0  0  0  0  0
  -43.4116   59.6099   67.4340 H   0  0  0  0  0  0  0  0  0  0  0  0
 18 19  2  0  0  0
 18 17  1  0  0  0
 18 20  1  0  0  0
 17 16  1  0  0  0
 20 21  1  0  0  0
 16 15  1  0  0  0
 15 14  1  0  0  0
 14 13  1  0  0  0
 13 12  1  0  0  0
 12  1  1  0  0  0
  1  2  1  0  0  0
  2  3  1  0  0  0
  3  4  1  0  0  0
  4  5  1  0  0  0
  5  6  1  0  0  0
  6  7  1  0  0  0
  7  8  1  0  0  0
  8  9  1  0  0  0
  9 10  1  0  0  0
 10 11  1  0  0  0
M  END
> <minimizedAffinity>
-7.14210

> <CNNscore>
0.8048003316

> <CNNaffinity>
6.7005577087

> <CNN_VS>
5.3926110268

> <CNNaffinity_variance>
0.4599144459

$$$$
/media/chris/experiments/cd1a-new-docking/inputs/ligands/4x6d_1_ligand.pdb


 21 20  0  0  0  0  0  0  0  0999 V2000
  -50.7783   59.7691   63.0319 C   0  0  0  0  0  0  0  0  0  0  0  0
  -50.6792   59.9928   64.5205 C   0  0  0  0  0  0  0  0  0  0  0  0
  -49.6575   59.2820   65.3015 C   0  0  0  0  0  0  0  0  0  0  0  0
  -48.5571   60.0519   65.9970 C   0  0  0  0  0  0  0  0  0  0  0  0
  -47.2194   59.8092   65.2992 C   0  0  0  0  0  0  0  0  0  0  0  0
  -46.9797   58.3425   64.9516 C   0  0  0  0  0  0  0  0  0  0  0  0
  -45.4876   58.0369   64.7955 C   0  0  0  0  0  0  0  0  0  0  0  0
  -44.7935   57.5420   66.0702 C   0  0  0  0  0  0  0  0  0  0  0  0
  -43.4155   58.1875   66.2670 C   0  0  0  0  0  0  0  0  0  0  0  0
  -43.4952   59.5475   66.9655 C   0  0  0  0  0  0  0  0  0  0  0  0
  -42.2741   60.4381   66.7058 C   0  0  0  0  0  0  0  0  0  0  0  0
  -50.3263   58.3450   62.7517 C   0  0  0  0  0  0  0  0  0  0  0  0
  -49.0909   58.3081   61.8699 C   0  0  0  0  0  0  0  0  0  0  0  0
  -49.3876   58.8721   60.4836 C   0  0  0  0  0  0  0  0  0  0  0  0
  -49.3528   57.7589   59.4458 C   0  0  0  0  0  0  0  0  0  0  0  0
  -47.9921   57.6861   58.7712 C   0  0  0  0  0  0  0  0  0  0  0  0
  -47.6526   56.2538   58.3715 C   0  0  0  0  0  0  0  0  0  0  0  0
  -47.6979   56.1208   56.8617 C   0  0  0  0  0  0  0  0  0  0  0  0
  -48.1119   57.0760   56.1562 O   0  0  0  0  0  0  0  0  0  0  0  0
  -47.3270   55.0551   56.3051 O   0  0  0  0  0  0  0  0  0  0  0  0
  -47.0174   54.3388   56.8238 H   0  0  0  0  0  0  0  0  0  0  0  0
 18 19  2  0  0  0
 18 17  1  0  0  0
 18 20  1  0  0  0
 17 16  1  0  0  0
 20 21  1  0  0  0
 16 15  1  0  0  0
 15 14  1  0  0  0
 14 13  1  0  0  0
 13 12  1  0  0  0
 12  1  1  0  0  0
  1  2  1  0  0  0
  2  3  1  0  0  0
  3  4  1  0  0  0
  4  5  1  0  0  0
  5  6  1  0  0  0
  6  7  1  0  0  0
  7  8  1  0  0  0
  8  9  1  0  0  0
  9 10  1  0  0  0
 10 11  1  0  0  0
M  END
> <minimizedAffinity>
-7.02899

> <CNNscore>
0.7679012418

> <CNNaffinity>
6.7501387596

> <CNN_VS>
5.1834397316

> <CNNaffinity_variance>
0.6627787352

$$$$
/media/chris/experiments/cd1a-new-docking/inputs/ligands/4x6d_1_ligand.pdb


 21 20  0  0  0  0  0  0  0  0999 V2000
  -48.5116   58.3922   63.5596 C   0  0  0  0  0  0  0  0  0  0  0  0
  -48.0429   58.6584   64.9687 C   0  0  0  0  0  0  0  0  0  0  0  0
  -46.6074   58.6286   65.2809 C   0  0  0  0  0  0  0  0  0  0  0  0
  -45.9068   57.3100   65.5217 C   0  0  0  0  0  0  0  0  0  0  0  0
  -44.5260   57.3175   64.8668 C   0  0  0  0  0  0  0  0  0  0  0  0
  -43.4905   58.1142   65.6559 C   0  0  0  0  0  0  0  0  0  0  0  0
  -42.6319   58.9877   64.7371 C   0  0  0  0  0  0  0  0  0  0  0  0
  -43.3403   60.2279   64.1789 C   0  0  0  0  0  0  0  0  0  0  0  0
  -42.3718   61.3973   63.9574 C   0  0  0  0  0  0  0  0  0  0  0  0
  -42.5495   62.0596   62.5886 C   0  0  0  0  0  0  0  0  0  0  0  0
  -41.6838   61.4302   61.4905 C   0  0  0  0  0  0  0  0  0  0  0  0
  -48.9551   59.7195   62.9661 C   0  0  0  0  0  0  0  0  0  0  0  0
  -49.5027   59.5540   61.5597 C   0  0  0  0  0  0  0  0  0  0  0  0
  -49.5061   58.0872   61.1398 C   0  0  0  0  0  0  0  0  0  0  0  0
  -49.2400   57.9687   59.6456 C   0  0  0  0  0  0  0  0  0  0  0  0
  -47.8270   57.4727   59.3821 C   0  0  0  0  0  0  0  0  0  0  0  0
  -47.4407   57.6653   57.9192 C   0  0  0  0  0  0  0  0  0  0  0  0
  -47.8069   56.4253   57.1271 C   0  0  0  0  0  0  0  0  0  0  0  0
  -47.5232   55.2845   57.5738 O   0  0  0  0  0  0  0  0  0  0  0  0
  -48.3917   56.5283   56.0178 O   0  0  0  0  0  0  0  0  0  0  0  0
  -48.6065   57.3747   55.6781 H   0  0  0  0  0  0  0  0  0  0  0  0
 18 19  2  0  0  0
 18 17  1  0  0  0
 18 20  1  0  0  0
 17 16  1  0  0  0
 20 21  1  0  0  0
 16 15  1  0  0  0
 15 14  1  0  0  0
 14 13  1  0  0  0
 13 12  1  0  0  0
 12  1  1  0  0  0
  1  2  1  0  0  0
  2  3  1  0  0  0
  3  4  1  0  0  0
  4  5  1  0  0  0
  5  6  1  0  0  0
  6  7  1  0  0  0
  7  8  1  0  0  0
  8  9  1  0  0  0
  9 10  1  0  0  0
 10 11  1  0  0  0
M  END
> <minimizedAffinity>
-6.87053

> <CNNscore>
0.7550547719

> <CNNaffinity>
6.7380523682

> <CNN_VS>
5.0875988007

> <CNNaffinity_variance>
0.4666126370

$$$$
/media/chris/experiments/cd1a-new-docking/inputs/ligands/4x6d_1_ligand.pdb


 21 20  0  0  0  0  0  0  0  0999 V2000
  -48.9109   60.4856   63.9788 C   0  0  0  0  0  0  0  0  0  0  0  0
  -50.4082   60.5200   63.7981 C   0  0  0  0  0  0  0  0  0  0  0  0
  -51.0485   59.6300   62.8199 C   0  0  0  0  0  0  0  0  0  0  0  0
  -50.6032   58.1902   62.6932 C   0  0  0  0  0  0  0  0  0  0  0  0
  -50.4612   57.8081   61.2204 C   0  0  0  0  0  0  0  0  0  0  0  0
  -49.2983   58.5117   60.5260 C   0  0  0  0  0  0  0  0  0  0  0  0
  -48.9945   57.8858   59.1621 C   0  0  0  0  0  0  0  0  0  0  0  0
  -47.5380   57.4497   58.9622 C   0  0  0  0  0  0  0  0  0  0  0  0
  -47.0088   57.8190   57.5700 C   0  0  0  0  0  0  0  0  0  0  0  0
  -47.6282   56.9677   56.4584 C   0  0  0  0  0  0  0  0  0  0  0  0
  -47.5445   55.4603   56.7273 C   0  0  0  0  0  0  0  0  0  0  0  0
  -48.6330   60.1960   65.4450 C   0  0  0  0  0  0  0  0  0  0  0  0
  -48.7793   58.7193   65.7662 C   0  0  0  0  0  0  0  0  0  0  0  0
  -47.7033   57.8948   65.0658 C   0  0  0  0  0  0  0  0  0  0  0  0
  -47.1241   56.8648   66.0254 C   0  0  0  0  0  0  0  0  0  0  0  0
  -46.1468   57.5123   66.9938 C   0  0  0  0  0  0  0  0  0  0  0  0
  -45.0875   58.3181   66.2491 C   0  0  0  0  0  0  0  0  0  0  0  0
  -43.9106   57.4241   65.9103 C   0  0  0  0  0  0  0  0  0  0  0  0
  -42.8475   57.5003   66.5778 O   0  0  0  0  0  0  0  0  0  0  0  0
  -43.9869   56.6047   64.9585 O   0  0  0  0  0  0  0  0  0  0  0  0
  -44.7755   56.5419   64.4563 H   0  0  0  0  0  0  0  0  0  0  0  0
 18 19  2  0  0  0
 18 17  1  0  0  0
 18 20  1  0  0  0
 17 16  1  0  0  0
 20 21  1  0  0  0
 16 15  1  0  0  0
 15 14  1  0  0  0
 14 13  1  0  0  0
 13 12  1  0  0  0
 12  1  1  0  0  0
  1  2  1  0  0  0
  2  3  1  0  0  0
  3  4  1  0  0  0
  4  5  1  0  0  0
  5  6  1  0  0  0
  6  7  1  0  0  0
  7  8  1  0  0  0
  8  9  1  0  0  0
  9 10  1  0  0  0
 10 11  1  0  0  0
M  END
> <minimizedAffinity>
-7.20642

> <CNNscore>
0.7311688066

> <CNNaffinity>
6.7734184265

> <CNN_VS>
4.9525122643

> <CNNaffinity_variance>
0.8140036464

$$$$
/media/chris/experiments/cd1a-new-docking/inputs/ligands/4x6d_1_ligand.pdb


 21 20  0  0  0  0  0  0  0  0999 V2000
  -43.5416   57.5834   66.1585 C   0  0  0  0  0  0  0  0  0  0  0  0
  -44.9811   57.9364   65.8774 C   0  0  0  0  0  0  0  0  0  0  0  0
  -46.0579   57.2637   66.6170 C   0  0  0  0  0  0  0  0  0  0  0  0
  -47.2772   56.7469   65.8865 C   0  0  0  0  0  0  0  0  0  0  0  0
  -47.9053   57.8619   65.0513 C   0  0  0  0  0  0  0  0  0  0  0  0
  -48.6046   58.9243   65.8950 C   0  0  0  0  0  0  0  0  0  0  0  0
  -50.0826   59.0595   65.5192 C   0  0  0  0  0  0  0  0  0  0  0  0
  -50.4278   60.3069   64.6967 C   0  0  0  0  0  0  0  0  0  0  0  0
  -50.2308   60.0810   63.1918 C   0  0  0  0  0  0  0  0  0  0  0  0
  -51.1775   59.0194   62.6256 C   0  0  0  0  0  0  0  0  0  0  0  0
  -50.4800   58.0092   61.7065 C   0  0  0  0  0  0  0  0  0  0  0  0
  -42.7360   58.8717   66.1085 C   0  0  0  0  0  0  0  0  0  0  0  0
  -43.5508   60.0256   65.5521 C   0  0  0  0  0  0  0  0  0  0  0  0
  -42.9555   60.5393   64.2445 C   0  0  0  0  0  0  0  0  0  0  0  0
  -41.4666   60.2271   64.1877 C   0  0  0  0  0  0  0  0  0  0  0  0
  -40.8021   60.9536   63.0289 C   0  0  0  0  0  0  0  0  0  0  0  0
  -39.3921   60.4255   62.7850 C   0  0  0  0  0  0  0  0  0  0  0  0
  -39.0501   60.5446   61.3126 C   0  0  0  0  0  0  0  0  0  0  0  0
  -39.9218   60.9280   60.4912 O   0  0  0  0  0  0  0  0  0  0  0  0
  -37.8961   60.2569   60.9019 O   0  0  0  0  0  0  0  0  0  0  0  0
  -37.2410   59.9704   61.5076 H   0  0  0  0  0  0  0  0  0  0  0  0
 18 19  2  0  0  0
 18 17  1  0  0  0
 18 20  1  0  0  0
 17 16  1  0  0  0
 20 21  1  0  0  0
 16 15  1  0  0  0
 15 14  1  0  0  0
 14 13  1  0  0  0
 13 12  1  0  0  0
 12  1  1  0  0  0
  1  2  1  0  0  0
  2  3  1  0  0  0
  3  4  1  0  0  0
  4  5  1  0  0  0
  5  6  1  0  0  0
  6  7  1  0  0  0
  7  8  1  0  0  0
  8  9  1  0  0  0
  9 10  1  0  0  0
 10 11  1  0  0  0
M  END
> <minimizedAffinity>
-6.54964

> <CNNscore>
0.7225583792

> <CNNaffinity>
6.4328627586

> <CNN_VS>
4.6481189728

> <CNNaffinity_variance>
0.4594088197

$$$$
