/media/chris/experiments/cd1a-new-docking/inputs/ligands/4x6d_1_ligand.pdb


 21 20  0  0  0  0  0  0  0  0999 V2000
  -47.4803   59.0346   66.3596 C   0  0  0  0  0  0  0  0  0  0  0  0
  -48.2629   58.3692   65.2548 C   0  0  0  0  0  0  0  0  0  0  0  0
  -49.7317   58.3701   65.2948 C   0  0  0  0  0  0  0  0  0  0  0  0
  -50.4849   59.6412   65.6179 C   0  0  0  0  0  0  0  0  0  0  0  0
  -50.6295   60.5034   64.3643 C   0  0  0  0  0  0  0  0  0  0  0  0
  -51.0876   59.7138   63.1411 C   0  0  0  0  0  0  0  0  0  0  0  0
  -50.1296   59.8970   61.9609 C   0  0  0  0  0  0  0  0  0  0  0  0
  -49.3707   58.6315   61.5434 C   0  0  0  0  0  0  0  0  0  0  0  0
  -49.0895   58.5960   60.0354 C   0  0  0  0  0  0  0  0  0  0  0  0
  -47.8949   57.7075   59.6786 C   0  0  0  0  0  0  0  0  0  0  0  0
  -47.3447   57.9633   58.2702 C   0  0  0  0  0  0  0  0  0  0  0  0
  -46.0554   58.5090   66.2922 C   0  0  0  0  0  0  0  0  0  0  0  0
  -45.2313   59.2445   65.2506 C   0  0  0  0  0  0  0  0  0  0  0  0
  -43.7376   59.0530   65.4955 C   0  0  0  0  0  0  0  0  0  0  0  0
  -43.3209   59.7617   66.7767 C   0  0  0  0  0  0  0  0  0  0  0  0
  -41.8462   59.5340   67.0698 C   0  0  0  0  0  0  0  0  0  0  0  0
  -40.9961   59.7667   65.8250 C   0  0  0  0  0  0  0  0  0  0  0  0
  -40.1957   61.0445   65.9851 C   0  0  0  0  0  0  0  0  0  0  0  0
  -40.7830   62.1557   66.0295 O   0  0  0  0  0  0  0  0  0  0  0  0
  -38.9410   61.0034   66.0701 O   0  0  0  0  0  0  0  0  0  0  0  0
  -38.4960   60.1793   66.0379 H   0  0  0  0  0  0  0  0  0  0  0  0
 18 19  2  0  0  0
 18 17  1  0  0  0
 18 20  1  0  0  0
 17 16  1  0  0  0
 20 21  1  0  0  0
 16 15  1  0  0  0
 15 14  1  0  0  0
 14 13  1  0  0  0
 13 12  1  0  0  0
 12  1  1  0  0  0
  1  2  1  0  0  0
  2  3  1  0  0  0
  3  4  1  0  0  0
  4  5  1  0  0  0
  5  6  1  0  0  0
  6  7  1  0  0  0
  7  8  1  0  0  0
  8  9  1  0  0  0
  9 10  1  0  0  0
 10 11  1  0  0  0
M  END
> <minimizedAffinity>
-7.07782

> <CNNscore>
0.9411618710

> <CNNaffinity>
6.8815765381

> <CNN_VS>
6.4766774178

> <CNNaffinity_variance>
0.6418263912

$$$$
/media/chris/experiments/cd1a-new-docking/inputs/ligands/4x6d_1_ligand.pdb


 21 20  0  0  0  0  0  0  0  0999 V2000
  -47.7061   60.1056   66.2379 C   0  0  0  0  0  0  0  0  0  0  0  0
  -47.7696   60.8361   64.9195 C   0  0  0  0  0  0  0  0  0  0  0  0
  -48.5681   60.2863   63.8154 C   0  0  0  0  0  0  0  0  0  0  0  0
  -48.6742   58.7899   63.6226 C   0  0  0  0  0  0  0  0  0  0  0  0
  -50.1406   58.3735   63.5137 C   0  0  0  0  0  0  0  0  0  0  0  0
  -50.7786   58.7613   62.1824 C   0  0  0  0  0  0  0  0  0  0  0  0
  -50.7102   57.6152   61.1696 C   0  0  0  0  0  0  0  0  0  0  0  0
  -50.0621   57.9776   59.8279 C   0  0  0  0  0  0  0  0  0  0  0  0
  -48.5839   58.3585   59.9829 C   0  0  0  0  0  0  0  0  0  0  0  0
  -47.6949   57.7221   58.9114 C   0  0  0  0  0  0  0  0  0  0  0  0
  -47.8013   56.1931   58.8610 C   0  0  0  0  0  0  0  0  0  0  0  0
  -46.3028   59.5385   66.3802 C   0  0  0  0  0  0  0  0  0  0  0  0
  -45.3384   60.1629   65.3877 C   0  0  0  0  0  0  0  0  0  0  0  0
  -43.9606   59.5137   65.4765 C   0  0  0  0  0  0  0  0  0  0  0  0
  -43.3193   59.8259   66.8215 C   0  0  0  0  0  0  0  0  0  0  0  0
  -41.8653   59.3814   66.8474 C   0  0  0  0  0  0  0  0  0  0  0  0
  -41.1279   59.8397   65.5934 C   0  0  0  0  0  0  0  0  0  0  0  0
  -40.3120   61.0790   65.9053 C   0  0  0  0  0  0  0  0  0  0  0  0
  -39.0783   60.9824   66.1297 O   0  0  0  0  0  0  0  0  0  0  0  0
  -40.8622   62.2099   65.9462 O   0  0  0  0  0  0  0  0  0  0  0  0
  -41.7808   62.2901   65.7801 H   0  0  0  0  0  0  0  0  0  0  0  0
 18 19  2  0  0  0
 18 17  1  0  0  0
 18 20  1  0  0  0
 17 16  1  0  0  0
 20 21  1  0  0  0
 16 15  1  0  0  0
 15 14  1  0  0  0
 14 13  1  0  0  0
 13 12  1  0  0  0
 12  1  1  0  0  0
  1  2  1  0  0  0
  2  3  1  0  0  0
  3  4  1  0  0  0
  4  5  1  0  0  0
  5  6  1  0  0  0
  6  7  1  0  0  0
  7  8  1  0  0  0
  8  9  1  0  0  0
  9 10  1  0  0  0
 10 11  1  0  0  0
M  END
> <minimizedAffinity>
-7.14798

> <CNNscore>
0.8747125268

> <CNNaffinity>
6.5819573402

> <CNN_VS>
5.7573204041

> <CNNaffinity_variance>
0.3964263797

$$$$
/media/chris/experiments/cd1a-new-docking/inputs/ligands/4x6d_1_ligand.pdb


 21 20  0  0  0  0  0  0  0  0999 V2000
  -46.2613   58.3702   65.7664 C   0  0  0  0  0  0  0  0  0  0  0  0
  -47.5240   58.6571   64.9924 C   0  0  0  0  0  0  0  0  0  0  0  0
  -48.7458   59.0543   65.7055 C   0  0  0  0  0  0  0  0  0  0  0  0
  -50.1044   58.6722   65.1616 C   0  0  0  0  0  0  0  0  0  0  0  0
  -50.7357   59.8589   64.4345 C   0  0  0  0  0  0  0  0  0  0  0  0
  -51.1529   59.5340   63.0027 C   0  0  0  0  0  0  0  0  0  0  0  0
  -49.9487   59.1527   62.1375 C   0  0  0  0  0  0  0  0  0  0  0  0
  -50.0305   57.7631   61.4942 C   0  0  0  0  0  0  0  0  0  0  0  0
  -50.3087   57.8381   59.9871 C   0  0  0  0  0  0  0  0  0  0  0  0
  -49.1855   57.2228   59.1483 C   0  0  0  0  0  0  0  0  0  0  0  0
  -47.8908   58.0444   59.1677 C   0  0  0  0  0  0  0  0  0  0  0  0
  -45.1306   58.2250   64.7607 C   0  0  0  0  0  0  0  0  0  0  0  0
  -43.8323   57.8071   65.4276 C   0  0  0  0  0  0  0  0  0  0  0  0
  -42.6957   58.7572   65.0624 C   0  0  0  0  0  0  0  0  0  0  0  0
  -43.2582   60.0756   64.5498 C   0  0  0  0  0  0  0  0  0  0  0  0
  -42.1426   61.0025   64.0931 C   0  0  0  0  0  0  0  0  0  0  0  0
  -42.4415   61.5857   62.7159 C   0  0  0  0  0  0  0  0  0  0  0  0
  -41.3080   61.2549   61.7646 C   0  0  0  0  0  0  0  0  0  0  0  0
  -41.4535   61.4234   60.5268 O   0  0  0  0  0  0  0  0  0  0  0  0
  -40.2179   60.8063   62.2047 O   0  0  0  0  0  0  0  0  0  0  0  0
  -40.1018   60.6781   63.1256 H   0  0  0  0  0  0  0  0  0  0  0  0
 18 19  2  0  0  0
 18 17  1  0  0  0
 18 20  1  0  0  0
 17 16  1  0  0  0
 20 21  1  0  0  0
 16 15  1  0  0  0
 15 14  1  0  0  0
 14 13  1  0  0  0
 13 12  1  0  0  0
 12  1  1  0  0  0
  1  2  1  0  0  0
  2  3  1  0  0  0
  3  4  1  0  0  0
  4  5  1  0  0  0
  5  6  1  0  0  0
  6  7  1  0  0  0
  7  8  1  0  0  0
  8  9  1  0  0  0
  9 10  1  0  0  0
 10 11  1  0  0  0
M  END
> <minimizedAffinity>
-6.63191

> <CNNscore>
0.8404720426

> <CNNaffinity>
6.7585754395

> <CNN_VS>
5.6803936958

> <CNNaffinity_variance>
0.7585627437

$$$$
/media/chris/experiments/cd1a-new-docking/inputs/ligands/4x6d_1_ligand.pdb


 21 20  0  0  0  0  0  0  0  0999 V2000
  -46.5343   56.9274   66.0004 C   0  0  0  0  0  0  0  0  0  0  0  0
  -47.5299   57.9300   65.4718 C   0  0  0  0  0  0  0  0  0  0  0  0
  -47.6857   59.2294   66.1399 C   0  0  0  0  0  0  0  0  0  0  0  0
  -47.5036   60.5135   65.3619 C   0  0  0  0  0  0  0  0  0  0  0  0
  -48.7132   60.7624   64.4617 C   0  0  0  0  0  0  0  0  0  0  0  0
  -49.9999   60.1406   64.9979 C   0  0  0  0  0  0  0  0  0  0  0  0
  -51.1778   60.3760   64.0486 C   0  0  0  0  0  0  0  0  0  0  0  0
  -51.0027   59.7854   62.6442 C   0  0  0  0  0  0  0  0  0  0  0  0
  -50.5805   58.3108   62.6847 C   0  0  0  0  0  0  0  0  0  0  0  0
  -50.9356   57.5597   61.3988 C   0  0  0  0  0  0  0  0  0  0  0  0
  -50.0938   57.9885   60.1907 C   0  0  0  0  0  0  0  0  0  0  0  0
  -45.2790   57.6907   66.3912 C   0  0  0  0  0  0  0  0  0  0  0  0
  -44.1923   57.5667   65.3383 C   0  0  0  0  0  0  0  0  0  0  0  0
  -43.5207   58.9121   65.0798 C   0  0  0  0  0  0  0  0  0  0  0  0
  -43.6319   59.7993   66.3119 C   0  0  0  0  0  0  0  0  0  0  0  0
  -42.2730   59.9963   66.9652 C   0  0  0  0  0  0  0  0  0  0  0  0
  -41.1433   59.6923   65.9865 C   0  0  0  0  0  0  0  0  0  0  0  0
  -40.3383   60.9512   65.7293 C   0  0  0  0  0  0  0  0  0  0  0  0
  -40.7067   62.0477   66.2230 O   0  0  0  0  0  0  0  0  0  0  0  0
  -39.3011   60.9095   65.0183 O   0  0  0  0  0  0  0  0  0  0  0  0
  -39.0201   60.0964   64.6469 H   0  0  0  0  0  0  0  0  0  0  0  0
 18 19  2  0  0  0
 18 17  1  0  0  0
 18 20  1  0  0  0
 17 16  1  0  0  0
 20 21  1  0  0  0
 16 15  1  0  0  0
 15 14  1  0  0  0
 14 13  1  0  0  0
 13 12  1  0  0  0
 12  1  1  0  0  0
  1  2  1  0  0  0
  2  3  1  0  0  0
  3  4  1  0  0  0
  4  5  1  0  0  0
  5  6  1  0  0  0
  6  7  1  0  0  0
  7  8  1  0  0  0
  8  9  1  0  0  0
  9 10  1  0  0  0
 10 11  1  0  0  0
M  END
> <minimizedAffinity>
-6.81598

> <CNNscore>
0.7933773398

> <CNNaffinity>
6.5406389236

> <CNN_VS>
5.1891946793

> <CNNaffinity_variance>
0.3741250634

$$$$
/media/chris/experiments/cd1a-new-docking/inputs/ligands/4x6d_1_ligand.pdb


 21 20  0  0  0  0  0  0  0  0999 V2000
  -44.6970   58.6761   65.6607 C   0  0  0  0  0  0  0  0  0  0  0  0
  -45.3778   59.9998   65.4151 C   0  0  0  0  0  0  0  0  0  0  0  0
  -46.7861   60.0326   64.9973 C   0  0  0  0  0  0  0  0  0  0  0  0
  -47.4496   58.7866   64.4543 C   0  0  0  0  0  0  0  0  0  0  0  0
  -48.6127   58.3718   65.3545 C   0  0  0  0  0  0  0  0  0  0  0  0
  -49.9803   58.6399   64.7320 C   0  0  0  0  0  0  0  0  0  0  0  0
  -49.8662   58.9668   63.2406 C   0  0  0  0  0  0  0  0  0  0  0  0
  -50.7633   58.1249   62.3251 C   0  0  0  0  0  0  0  0  0  0  0  0
  -50.0075   57.6003   61.0970 C   0  0  0  0  0  0  0  0  0  0  0  0
  -48.8233   58.4894   60.7086 C   0  0  0  0  0  0  0  0  0  0  0  0
  -47.9668   57.9040   59.5793 C   0  0  0  0  0  0  0  0  0  0  0  0
  -43.5611   58.5524   64.6580 C   0  0  0  0  0  0  0  0  0  0  0  0
  -42.9515   59.9028   64.3262 C   0  0  0  0  0  0  0  0  0  0  0  0
  -41.5852   60.0664   64.9852 C   0  0  0  0  0  0  0  0  0  0  0  0
  -40.8895   58.7166   65.0925 C   0  0  0  0  0  0  0  0  0  0  0  0
  -39.3778   58.8802   65.0714 C   0  0  0  0  0  0  0  0  0  0  0  0
  -38.8280   58.7282   63.6569 C   0  0  0  0  0  0  0  0  0  0  0  0
  -38.0003   59.9467   63.2973 C   0  0  0  0  0  0  0  0  0  0  0  0
  -38.2094   61.0444   63.8744 O   0  0  0  0  0  0  0  0  0  0  0  0
  -37.1033   59.8702   62.4182 O   0  0  0  0  0  0  0  0  0  0  0  0
  -36.9414   59.0559   61.9838 H   0  0  0  0  0  0  0  0  0  0  0  0
 18 19  2  0  0  0
 18 17  1  0  0  0
 18 20  1  0  0  0
 17 16  1  0  0  0
 20 21  1  0  0  0
 16 15  1  0  0  0
 15 14  1  0  0  0
 14 13  1  0  0  0
 13 12  1  0  0  0
 12  1  1  0  0  0
  1  2  1  0  0  0
  2  3  1  0  0  0
  3  4  1  0  0  0
  4  5  1  0  0  0
  5  6  1  0  0  0
  6  7  1  0  0  0
  7  8  1  0  0  0
  8  9  1  0  0  0
  9 10  1  0  0  0
 10 11  1  0  0  0
M  END
> <minimizedAffinity>
-6.31690

> <CNNscore>
0.7497029305

> <CNNaffinity>
6.5657167435

> <CNN_VS>
4.9223370552

> <CNNaffinity_variance>
0.3639237583

$$$$
/media/chris/experiments/cd1a-new-docking/inputs/ligands/4x6d_1_ligand.pdb


 21 20  0  0  0  0  0  0  0  0999 V2000
  -43.5706   57.3877   65.2982 C   0  0  0  0  0  0  0  0  0  0  0  0
  -44.8890   57.9084   64.7820 C   0  0  0  0  0  0  0  0  0  0  0  0
  -45.7381   58.7383   65.6476 C   0  0  0  0  0  0  0  0  0  0  0  0
  -46.1089   60.1440   65.2304 C   0  0  0  0  0  0  0  0  0  0  0  0
  -47.6238   60.3335   65.2983 C   0  0  0  0  0  0  0  0  0  0  0  0
  -48.3508   59.1467   65.9248 C   0  0  0  0  0  0  0  0  0  0  0  0
  -49.6468   58.8212   65.1775 C   0  0  0  0  0  0  0  0  0  0  0  0
  -50.5769   60.0185   64.9472 C   0  0  0  0  0  0  0  0  0  0  0  0
  -51.1731   60.0249   63.5334 C   0  0  0  0  0  0  0  0  0  0  0  0
  -50.5727   58.9407   62.6347 C   0  0  0  0  0  0  0  0  0  0  0  0
  -49.5882   59.4882   61.5942 C   0  0  0  0  0  0  0  0  0  0  0  0
  -43.2585   58.1294   66.5880 C   0  0  0  0  0  0  0  0  0  0  0  0
  -42.0365   59.0191   66.4459 C   0  0  0  0  0  0  0  0  0  0  0  0
  -41.2347   58.6574   65.1993 C   0  0  0  0  0  0  0  0  0  0  0  0
  -39.8121   59.1860   65.3188 C   0  0  0  0  0  0  0  0  0  0  0  0
  -38.8665   58.4134   64.4127 C   0  0  0  0  0  0  0  0  0  0  0  0
  -37.4215   58.5499   64.8816 C   0  0  0  0  0  0  0  0  0  0  0  0
  -36.8065   59.7998   64.2827 C   0  0  0  0  0  0  0  0  0  0  0  0
  -36.8663   60.8921   64.9032 O   0  0  0  0  0  0  0  0  0  0  0  0
  -36.2372   59.7548   63.1615 O   0  0  0  0  0  0  0  0  0  0  0  0
  -36.1885   58.9447   62.6930 H   0  0  0  0  0  0  0  0  0  0  0  0
 18 19  2  0  0  0
 18 17  1  0  0  0
 18 20  1  0  0  0
 17 16  1  0  0  0
 20 21  1  0  0  0
 16 15  1  0  0  0
 15 14  1  0  0  0
 14 13  1  0  0  0
 13 12  1  0  0  0
 12  1  1  0  0  0
  1  2  1  0  0  0
  2  3  1  0  0  0
  3  4  1  0  0  0
  4  5  1  0  0  0
  5  6  1  0  0  0
  6  7  1  0  0  0
  7  8  1  0  0  0
  8  9  1  0  0  0
  9 10  1  0  0  0
 10 11  1  0  0  0
M  END
> <minimizedAffinity>
-6.47279

> <CNNscore>
0.7181565762

> <CNNaffinity>
6.3763089180

> <CNN_VS>
4.5791883469

> <CNNaffinity_variance>
0.4257915020

$$$$
/media/chris/experiments/cd1a-new-docking/inputs/ligands/4x6d_1_ligand.pdb


 21 20  0  0  0  0  0  0  0  0999 V2000
  -43.9799   56.9096   65.0167 C   0  0  0  0  0  0  0  0  0  0  0  0
  -45.2961   57.6234   64.8322 C   0  0  0  0  0  0  0  0  0  0  0  0
  -46.0718   58.0444   66.0070 C   0  0  0  0  0  0  0  0  0  0  0  0
  -46.5160   59.4829   66.1518 C   0  0  0  0  0  0  0  0  0  0  0  0
  -47.7150   59.7598   65.2455 C   0  0  0  0  0  0  0  0  0  0  0  0
  -48.8672   58.7812   65.4568 C   0  0  0  0  0  0  0  0  0  0  0  0
  -49.6136   58.4988   64.1502 C   0  0  0  0  0  0  0  0  0  0  0  0
  -48.8629   58.9074   62.8770 C   0  0  0  0  0  0  0  0  0  0  0  0
  -49.4501   58.2484   61.6219 C   0  0  0  0  0  0  0  0  0  0  0  0
  -48.8250   58.7793   60.3292 C   0  0  0  0  0  0  0  0  0  0  0  0
  -47.9671   57.7408   59.5962 C   0  0  0  0  0  0  0  0  0  0  0  0
  -43.1759   57.6898   66.0442 C   0  0  0  0  0  0  0  0  0  0  0  0
  -42.0839   58.5205   65.3941 C   0  0  0  0  0  0  0  0  0  0  0  0
  -42.3632   60.0127   65.5470 C   0  0  0  0  0  0  0  0  0  0  0  0
  -43.1876   60.5154   64.3701 C   0  0  0  0  0  0  0  0  0  0  0  0
  -42.2911   61.0792   63.2789 C   0  0  0  0  0  0  0  0  0  0  0  0
  -41.0431   61.7251   63.8719 C   0  0  0  0  0  0  0  0  0  0  0  0
  -39.8093   60.9827   63.3969 C   0  0  0  0  0  0  0  0  0  0  0  0
  -38.7905   60.9170   64.1314 O   0  0  0  0  0  0  0  0  0  0  0  0
  -39.7939   60.4318   62.2657 O   0  0  0  0  0  0  0  0  0  0  0  0
  -40.5490   60.4763   61.7127 H   0  0  0  0  0  0  0  0  0  0  0  0
 18 19  2  0  0  0
 18 17  1  0  0  0
 18 20  1  0  0  0
 17 16  1  0  0  0
 20 21  1  0  0  0
 16 15  1  0  0  0
 15 14  1  0  0  0
 14 13  1  0  0  0
 13 12  1  0  0  0
 12  1  1  0  0  0
  1  2  1  0  0  0
  2  3  1  0  0  0
  3  4  1  0  0  0
  4  5  1  0  0  0
  5  6  1  0  0  0
  6  7  1  0  0  0
  7  8  1  0  0  0
  8  9  1  0  0  0
  9 10  1  0  0  0
 10 11  1  0  0  0
M  END
> <minimizedAffinity>
-6.15689

> <CNNscore>
0.6808309555

> <CNNaffinity>
6.5330686569

> <CNN_VS>
4.4479155540

> <CNNaffinity_variance>
0.5595928431

$$$$
/media/chris/experiments/cd1a-new-docking/inputs/ligands/4x6d_1_ligand.pdb


 21 20  0  0  0  0  0  0  0  0999 V2000
  -41.7203   59.7350   66.5767 C   0  0  0  0  0  0  0  0  0  0  0  0
  -43.1986   59.9992   66.7205 C   0  0  0  0  0  0  0  0  0  0  0  0
  -44.1660   59.1611   65.9990 C   0  0  0  0  0  0  0  0  0  0  0  0
  -45.6430   59.2629   66.3083 C   0  0  0  0  0  0  0  0  0  0  0  0
  -46.4512   59.3281   65.0130 C   0  0  0  0  0  0  0  0  0  0  0  0
  -47.5470   58.2686   64.9339 C   0  0  0  0  0  0  0  0  0  0  0  0
  -48.8841   58.8005   65.4569 C   0  0  0  0  0  0  0  0  0  0  0  0
  -49.2901   60.1745   64.9103 C   0  0  0  0  0  0  0  0  0  0  0  0
  -50.7970   60.2662   64.6358 C   0  0  0  0  0  0  0  0  0  0  0  0
  -51.1509   59.9616   63.1779 C   0  0  0  0  0  0  0  0  0  0  0  0
  -49.9527   60.0630   62.2262 C   0  0  0  0  0  0  0  0  0  0  0  0
  -41.5278   58.8698   65.3416 C   0  0  0  0  0  0  0  0  0  0  0  0
  -40.2314   59.1948   64.6213 C   0  0  0  0  0  0  0  0  0  0  0  0
  -39.2169   58.0661   64.7784 C   0  0  0  0  0  0  0  0  0  0  0  0
  -37.9439   58.3943   64.0108 C   0  0  0  0  0  0  0  0  0  0  0  0
  -37.9924   57.8179   62.6045 C   0  0  0  0  0  0  0  0  0  0  0  0
  -37.5951   58.8635   61.5677 C   0  0  0  0  0  0  0  0  0  0  0  0
  -37.1696   58.1750   60.2855 C   0  0  0  0  0  0  0  0  0  0  0  0
  -36.4625   57.1360   60.3319 O   0  0  0  0  0  0  0  0  0  0  0  0
  -37.5160   58.6390   59.1684 O   0  0  0  0  0  0  0  0  0  0  0  0
  -38.0428   59.4127   59.1255 H   0  0  0  0  0  0  0  0  0  0  0  0
 18 19  2  0  0  0
 18 17  1  0  0  0
 18 20  1  0  0  0
 17 16  1  0  0  0
 20 21  1  0  0  0
 16 15  1  0  0  0
 15 14  1  0  0  0
 14 13  1  0  0  0
 13 12  1  0  0  0
 12  1  1  0  0  0
  1  2  1  0  0  0
  2  3  1  0  0  0
  3  4  1  0  0  0
  4  5  1  0  0  0
  5  6  1  0  0  0
  6  7  1  0  0  0
  7  8  1  0  0  0
  8  9  1  0  0  0
  9 10  1  0  0  0
 10 11  1  0  0  0
M  END
> <minimizedAffinity>
-6.52962

> <CNNscore>
0.6472000480

> <CNNaffinity>
6.2447748184

> <CNN_VS>
4.0416183472

> <CNNaffinity_variance>
0.6065294147

$$$$
/media/chris/experiments/cd1a-new-docking/inputs/ligands/4x6d_1_ligand.pdb


 21 20  0  0  0  0  0  0  0  0999 V2000
  -42.5775   60.0822   66.6351 C   0  0  0  0  0  0  0  0  0  0  0  0
  -42.3774   58.5899   66.5405 C   0  0  0  0  0  0  0  0  0  0  0  0
  -42.8232   57.8657   65.3423 C   0  0  0  0  0  0  0  0  0  0  0  0
  -44.2705   57.9288   64.9077 C   0  0  0  0  0  0  0  0  0  0  0  0
  -45.1660   57.2653   65.9534 C   0  0  0  0  0  0  0  0  0  0  0  0
  -46.5944   57.8032   65.9501 C   0  0  0  0  0  0  0  0  0  0  0  0
  -46.9836   58.3607   64.5783 C   0  0  0  0  0  0  0  0  0  0  0  0
  -48.4921   58.4157   64.3085 C   0  0  0  0  0  0  0  0  0  0  0  0
  -48.8068   58.6527   62.8256 C   0  0  0  0  0  0  0  0  0  0  0  0
  -49.6833   59.8872   62.5982 C   0  0  0  0  0  0  0  0  0  0  0  0
  -51.0687   59.7784   63.2466 C   0  0  0  0  0  0  0  0  0  0  0  0
  -41.3273   60.7478   66.0829 C   0  0  0  0  0  0  0  0  0  0  0  0
  -41.4527   61.0408   64.5984 C   0  0  0  0  0  0  0  0  0  0  0  0
  -40.1090   60.8878   63.8921 C   0  0  0  0  0  0  0  0  0  0  0  0
  -39.5815   59.4708   64.0694 C   0  0  0  0  0  0  0  0  0  0  0  0
  -38.2029   59.3212   63.4453 C   0  0  0  0  0  0  0  0  0  0  0  0
  -38.2524   58.4265   62.2110 C   0  0  0  0  0  0  0  0  0  0  0  0
  -37.9405   59.2459   60.9739 C   0  0  0  0  0  0  0  0  0  0  0  0
  -38.0430   60.4990   61.0045 O   0  0  0  0  0  0  0  0  0  0  0  0
  -37.5821   58.6797   59.9089 O   0  0  0  0  0  0  0  0  0  0  0  0
  -37.5033   57.7465   59.8781 H   0  0  0  0  0  0  0  0  0  0  0  0
 18 19  2  0  0  0
 18 17  1  0  0  0
 18 20  1  0  0  0
 17 16  1  0  0  0
 20 21  1  0  0  0
 16 15  1  0  0  0
 15 14  1  0  0  0
 14 13  1  0  0  0
 13 12  1  0  0  0
 12  1  1  0  0  0
  1  2  1  0  0  0
  2  3  1  0  0  0
  3  4  1  0  0  0
  4  5  1  0  0  0
  5  6  1  0  0  0
  6  7  1  0  0  0
  7  8  1  0  0  0
  8  9  1  0  0  0
  9 10  1  0  0  0
 10 11  1  0  0  0
M  END
> <minimizedAffinity>
-6.23242

> <CNNscore>
0.6033300757

> <CNNaffinity>
6.3975768089

> <CNN_VS>
3.8598504066

> <CNNaffinity_variance>
0.6339462996

$$$$
