/media/chris/experiments/cd1a-new-docking/inputs/ligands/4x6d_1_ligand.pdb


 21 20  0  0  0  0  0  0  0  0999 V2000
  -47.2157   58.8339   64.6887 C   0  0  0  0  0  0  0  0  0  0  0  0
  -48.3761   57.9118   64.9698 C   0  0  0  0  0  0  0  0  0  0  0  0
  -49.7154   58.4699   65.2019 C   0  0  0  0  0  0  0  0  0  0  0  0
  -49.9567   59.9563   65.0622 C   0  0  0  0  0  0  0  0  0  0  0  0
  -51.1080   60.2163   64.0914 C   0  0  0  0  0  0  0  0  0  0  0  0
  -50.8795   59.6067   62.7108 C   0  0  0  0  0  0  0  0  0  0  0  0
  -49.7799   60.3458   61.9435 C   0  0  0  0  0  0  0  0  0  0  0  0
  -49.2172   59.5894   60.7340 C   0  0  0  0  0  0  0  0  0  0  0  0
  -48.7524   58.1739   61.1014 C   0  0  0  0  0  0  0  0  0  0  0  0
  -48.3574   57.3458   59.8758 C   0  0  0  0  0  0  0  0  0  0  0  0
  -47.6749   58.1706   58.7778 C   0  0  0  0  0  0  0  0  0  0  0  0
  -45.9387   58.0241   64.8461 C   0  0  0  0  0  0  0  0  0  0  0  0
  -44.7412   58.9101   65.1395 C   0  0  0  0  0  0  0  0  0  0  0  0
  -43.4470   58.1021   65.1431 C   0  0  0  0  0  0  0  0  0  0  0  0
  -42.7508   58.2326   66.4906 C   0  0  0  0  0  0  0  0  0  0  0  0
  -42.0706   59.5861   66.6229 C   0  0  0  0  0  0  0  0  0  0  0  0
  -40.8265   59.6643   65.7439 C   0  0  0  0  0  0  0  0  0  0  0  0
  -40.1300   60.9934   65.9621 C   0  0  0  0  0  0  0  0  0  0  0  0
  -38.8848   61.0326   66.1341 O   0  0  0  0  0  0  0  0  0  0  0  0
  -40.7913   62.0637   65.9775 O   0  0  0  0  0  0  0  0  0  0  0  0
  -41.7194   62.0429   65.8503 H   0  0  0  0  0  0  0  0  0  0  0  0
 18 19  2  0  0  0
 18 17  1  0  0  0
 18 20  1  0  0  0
 17 16  1  0  0  0
 20 21  1  0  0  0
 16 15  1  0  0  0
 15 14  1  0  0  0
 14 13  1  0  0  0
 13 12  1  0  0  0
 12  1  1  0  0  0
  1  2  1  0  0  0
  2  3  1  0  0  0
  3  4  1  0  0  0
  4  5  1  0  0  0
  5  6  1  0  0  0
  6  7  1  0  0  0
  7  8  1  0  0  0
  8  9  1  0  0  0
  9 10  1  0  0  0
 10 11  1  0  0  0
M  END
> <minimizedAffinity>
-7.12098

> <CNNscore>
0.8915993571

> <CNNaffinity>
6.7476615906

> <CNN_VS>
6.0162105560

> <CNNaffinity_variance>
0.3814074397

$$$$
/media/chris/experiments/cd1a-new-docking/inputs/ligands/4x6d_1_ligand.pdb


 21 20  0  0  0  0  0  0  0  0999 V2000
  -44.3394   57.9403   64.7957 C   0  0  0  0  0  0  0  0  0  0  0  0
  -45.7143   57.4315   65.1514 C   0  0  0  0  0  0  0  0  0  0  0  0
  -46.8486   58.3639   65.2066 C   0  0  0  0  0  0  0  0  0  0  0  0
  -48.2363   57.9000   64.8241 C   0  0  0  0  0  0  0  0  0  0  0  0
  -48.7637   58.7224   63.6489 C   0  0  0  0  0  0  0  0  0  0  0  0
  -50.2116   58.3988   63.2904 C   0  0  0  0  0  0  0  0  0  0  0  0
  -50.5127   58.7145   61.8227 C   0  0  0  0  0  0  0  0  0  0  0  0
  -50.8560   57.4955   60.9579 C   0  0  0  0  0  0  0  0  0  0  0  0
  -49.8937   57.3366   59.7732 C   0  0  0  0  0  0  0  0  0  0  0  0
  -48.6225   58.1754   59.9289 C   0  0  0  0  0  0  0  0  0  0  0  0
  -47.6716   58.0681   58.7307 C   0  0  0  0  0  0  0  0  0  0  0  0
  -44.3146   59.4328   65.0837 C   0  0  0  0  0  0  0  0  0  0  0  0
  -43.6167   59.7429   66.3958 C   0  0  0  0  0  0  0  0  0  0  0  0
  -42.4658   58.7739   66.6491 C   0  0  0  0  0  0  0  0  0  0  0  0
  -41.1355   59.4478   66.3428 C   0  0  0  0  0  0  0  0  0  0  0  0
  -40.5304   58.8994   65.0602 C   0  0  0  0  0  0  0  0  0  0  0  0
  -39.0089   58.8411   65.1512 C   0  0  0  0  0  0  0  0  0  0  0  0
  -38.4429   60.2478   65.1473 C   0  0  0  0  0  0  0  0  0  0  0  0
  -38.0873   60.7879   66.2260 O   0  0  0  0  0  0  0  0  0  0  0  0
  -38.3294   60.8853   64.0685 O   0  0  0  0  0  0  0  0  0  0  0  0
  -38.5923   60.4898   63.2608 H   0  0  0  0  0  0  0  0  0  0  0  0
 18 19  2  0  0  0
 18 17  1  0  0  0
 18 20  1  0  0  0
 17 16  1  0  0  0
 20 21  1  0  0  0
 16 15  1  0  0  0
 15 14  1  0  0  0
 14 13  1  0  0  0
 13 12  1  0  0  0
 12  1  1  0  0  0
  1  2  1  0  0  0
  2  3  1  0  0  0
  3  4  1  0  0  0
  4  5  1  0  0  0
  5  6  1  0  0  0
  6  7  1  0  0  0
  7  8  1  0  0  0
  8  9  1  0  0  0
  9 10  1  0  0  0
 10 11  1  0  0  0
M  END
> <minimizedAffinity>
-6.76994

> <CNNscore>
0.8428251743

> <CNNaffinity>
6.7051630020

> <CNN_VS>
5.6512804031

> <CNNaffinity_variance>
0.4621741176

$$$$
/media/chris/experiments/cd1a-new-docking/inputs/ligands/4x6d_1_ligand.pdb


 21 20  0  0  0  0  0  0  0  0999 V2000
  -46.7688   59.9215   65.2173 C   0  0  0  0  0  0  0  0  0  0  0  0
  -48.1672   59.7176   64.6893 C   0  0  0  0  0  0  0  0  0  0  0  0
  -48.8280   60.7900   63.9328 C   0  0  0  0  0  0  0  0  0  0  0  0
  -49.9897   60.4733   63.0176 C   0  0  0  0  0  0  0  0  0  0  0  0
  -50.5802   59.1075   63.3659 C   0  0  0  0  0  0  0  0  0  0  0  0
  -50.7756   58.2085   62.1479 C   0  0  0  0  0  0  0  0  0  0  0  0
  -49.4445   57.8959   61.4590 C   0  0  0  0  0  0  0  0  0  0  0  0
  -49.2586   58.5531   60.0860 C   0  0  0  0  0  0  0  0  0  0  0  0
  -47.9145   58.1837   59.4445 C   0  0  0  0  0  0  0  0  0  0  0  0
  -48.0752   57.2980   58.2061 C   0  0  0  0  0  0  0  0  0  0  0  0
  -47.6256   55.8493   58.4310 C   0  0  0  0  0  0  0  0  0  0  0  0
  -46.2669   58.5760   65.7161 C   0  0  0  0  0  0  0  0  0  0  0  0
  -45.2983   58.7294   66.8751 C   0  0  0  0  0  0  0  0  0  0  0  0
  -43.8624   58.8654   66.3776 C   0  0  0  0  0  0  0  0  0  0  0  0
  -43.2474   60.1575   66.8970 C   0  0  0  0  0  0  0  0  0  0  0  0
  -41.7712   59.9702   67.2099 C   0  0  0  0  0  0  0  0  0  0  0  0
  -40.8965   60.5767   66.1174 C   0  0  0  0  0  0  0  0  0  0  0  0
  -40.0172   59.5003   65.5112 C   0  0  0  0  0  0  0  0  0  0  0  0
  -40.5365   58.4787   64.9932 O   0  0  0  0  0  0  0  0  0  0  0  0
  -38.7646   59.6185   65.5259 O   0  0  0  0  0  0  0  0  0  0  0  0
  -38.3700   60.3766   65.9100 H   0  0  0  0  0  0  0  0  0  0  0  0
 18 19  2  0  0  0
 18 17  1  0  0  0
 18 20  1  0  0  0
 17 16  1  0  0  0
 20 21  1  0  0  0
 16 15  1  0  0  0
 15 14  1  0  0  0
 14 13  1  0  0  0
 13 12  1  0  0  0
 12  1  1  0  0  0
  1  2  1  0  0  0
  2  3  1  0  0  0
  3  4  1  0  0  0
  4  5  1  0  0  0
  5  6  1  0  0  0
  6  7  1  0  0  0
  7  8  1  0  0  0
  8  9  1  0  0  0
  9 10  1  0  0  0
 10 11  1  0  0  0
M  END
> <minimizedAffinity>
-6.25509

> <CNNscore>
0.8252738714

> <CNNaffinity>
6.7210412025

> <CNN_VS>
5.5466995239

> <CNNaffinity_variance>
0.6324267983

$$$$
/media/chris/experiments/cd1a-new-docking/inputs/ligands/4x6d_1_ligand.pdb


 21 20  0  0  0  0  0  0  0  0999 V2000
  -46.7277   57.3458   66.5969 C   0  0  0  0  0  0  0  0  0  0  0  0
  -47.3861   57.5478   65.2547 C   0  0  0  0  0  0  0  0  0  0  0  0
  -47.9573   58.8567   64.9088 C   0  0  0  0  0  0  0  0  0  0  0  0
  -48.8900   59.5596   65.8696 C   0  0  0  0  0  0  0  0  0  0  0  0
  -50.3448   59.2829   65.4921 C   0  0  0  0  0  0  0  0  0  0  0  0
  -50.9690   60.3926   64.6503 C   0  0  0  0  0  0  0  0  0  0  0  0
  -51.0770   59.9894   63.1772 C   0  0  0  0  0  0  0  0  0  0  0  0
  -49.9169   60.4614   62.2924 C   0  0  0  0  0  0  0  0  0  0  0  0
  -49.5578   59.4333   61.2113 C   0  0  0  0  0  0  0  0  0  0  0  0
  -49.7830   57.9905   61.6709 C   0  0  0  0  0  0  0  0  0  0  0  0
  -50.7203   57.1979   60.7518 C   0  0  0  0  0  0  0  0  0  0  0  0
  -45.2645   57.7319   66.4520 C   0  0  0  0  0  0  0  0  0  0  0  0
  -45.0089   59.1569   66.9095 C   0  0  0  0  0  0  0  0  0  0  0  0
  -43.7758   59.7409   66.2268 C   0  0  0  0  0  0  0  0  0  0  0  0
  -43.9809   59.7820   64.7189 C   0  0  0  0  0  0  0  0  0  0  0  0
  -42.9583   60.6907   64.0551 C   0  0  0  0  0  0  0  0  0  0  0  0
  -41.5677   60.4756   64.6438 C   0  0  0  0  0  0  0  0  0  0  0  0
  -40.9621   61.8126   65.0244 C   0  0  0  0  0  0  0  0  0  0  0  0
  -40.3031   61.9266   66.0895 O   0  0  0  0  0  0  0  0  0  0  0  0
  -41.1178   62.8165   64.2821 O   0  0  0  0  0  0  0  0  0  0  0  0
  -41.6076   62.7397   63.4869 H   0  0  0  0  0  0  0  0  0  0  0  0
 18 19  2  0  0  0
 18 17  1  0  0  0
 18 20  1  0  0  0
 17 16  1  0  0  0
 20 21  1  0  0  0
 16 15  1  0  0  0
 15 14  1  0  0  0
 14 13  1  0  0  0
 13 12  1  0  0  0
 12  1  1  0  0  0
  1  2  1  0  0  0
  2  3  1  0  0  0
  3  4  1  0  0  0
  4  5  1  0  0  0
  5  6  1  0  0  0
  6  7  1  0  0  0
  7  8  1  0  0  0
  8  9  1  0  0  0
  9 10  1  0  0  0
 10 11  1  0  0  0
M  END
> <minimizedAffinity>
-6.63074

> <CNNscore>
0.7215916514

> <CNNaffinity>
6.4304876328

> <CNN_VS>
4.6401863098

> <CNNaffinity_variance>
0.3769967854

$$$$
/media/chris/experiments/cd1a-new-docking/inputs/ligands/4x6d_1_ligand.pdb


 21 20  0  0  0  0  0  0  0  0999 V2000
  -46.1980   59.3321   65.0522 C   0  0  0  0  0  0  0  0  0  0  0  0
  -46.6823   60.7604   65.0182 C   0  0  0  0  0  0  0  0  0  0  0  0
  -48.1220   61.0439   64.9426 C   0  0  0  0  0  0  0  0  0  0  0  0
  -49.1138   60.1478   65.6502 C   0  0  0  0  0  0  0  0  0  0  0  0
  -50.1926   59.6789   64.6746 C   0  0  0  0  0  0  0  0  0  0  0  0
  -49.8248   58.3891   63.9460 C   0  0  0  0  0  0  0  0  0  0  0  0
  -50.3077   58.4053   62.4931 C   0  0  0  0  0  0  0  0  0  0  0  0
  -49.3818   59.1366   61.5136 C   0  0  0  0  0  0  0  0  0  0  0  0
  -49.3465   58.4611   60.1362 C   0  0  0  0  0  0  0  0  0  0  0  0
  -47.9936   57.8127   59.8313 C   0  0  0  0  0  0  0  0  0  0  0  0
  -47.5371   58.0095   58.3807 C   0  0  0  0  0  0  0  0  0  0  0  0
  -44.8450   59.3236   65.7453 C   0  0  0  0  0  0  0  0  0  0  0  0
  -43.7820   58.6449   64.9001 C   0  0  0  0  0  0  0  0  0  0  0  0
  -42.5602   59.5424   64.7280 C   0  0  0  0  0  0  0  0  0  0  0  0
  -42.9696   60.8740   64.1142 C   0  0  0  0  0  0  0  0  0  0  0  0
  -41.8040   61.5149   63.3776 C   0  0  0  0  0  0  0  0  0  0  0  0
  -42.1014   61.6474   61.8874 C   0  0  0  0  0  0  0  0  0  0  0  0
  -40.8936   61.2049   61.0845 C   0  0  0  0  0  0  0  0  0  0  0  0
  -40.9110   61.2733   59.8288 O   0  0  0  0  0  0  0  0  0  0  0  0
  -39.8694   60.7627   61.6665 O   0  0  0  0  0  0  0  0  0  0  0  0
  -39.8487   60.7086   62.6018 H   0  0  0  0  0  0  0  0  0  0  0  0
 18 19  2  0  0  0
 18 17  1  0  0  0
 18 20  1  0  0  0
 17 16  1  0  0  0
 20 21  1  0  0  0
 16 15  1  0  0  0
 15 14  1  0  0  0
 14 13  1  0  0  0
 13 12  1  0  0  0
 12  1  1  0  0  0
  1  2  1  0  0  0
  2  3  1  0  0  0
  3  4  1  0  0  0
  4  5  1  0  0  0
  5  6  1  0  0  0
  6  7  1  0  0  0
  7  8  1  0  0  0
  8  9  1  0  0  0
  9 10  1  0  0  0
 10 11  1  0  0  0
M  END
> <minimizedAffinity>
-6.72526

> <CNNscore>
0.7039278150

> <CNNaffinity>
6.3945145607

> <CNN_VS>
4.5012764931

> <CNNaffinity_variance>
0.4420435429

$$$$
/media/chris/experiments/cd1a-new-docking/inputs/ligands/4x6d_1_ligand.pdb


 21 20  0  0  0  0  0  0  0  0999 V2000
  -44.4490   57.8073   64.5269 C   0  0  0  0  0  0  0  0  0  0  0  0
  -45.6325   58.4656   65.1914 C   0  0  0  0  0  0  0  0  0  0  0  0
  -46.9766   58.3039   64.6203 C   0  0  0  0  0  0  0  0  0  0  0  0
  -48.0633   57.6114   65.4120 C   0  0  0  0  0  0  0  0  0  0  0  0
  -49.3761   58.3854   65.2973 C   0  0  0  0  0  0  0  0  0  0  0  0
  -49.4467   59.2687   64.0545 C   0  0  0  0  0  0  0  0  0  0  0  0
  -50.6653   58.9306   63.1915 C   0  0  0  0  0  0  0  0  0  0  0  0
  -50.3456   58.1994   61.8820 C   0  0  0  0  0  0  0  0  0  0  0  0
  -48.8604   58.3005   61.5100 C   0  0  0  0  0  0  0  0  0  0  0  0
  -48.6202   58.1833   60.0026 C   0  0  0  0  0  0  0  0  0  0  0  0
  -49.8122   57.5921   59.2402 C   0  0  0  0  0  0  0  0  0  0  0  0
  -43.4746   57.4042   65.6219 C   0  0  0  0  0  0  0  0  0  0  0  0
  -42.6360   58.5793   66.0919 C   0  0  0  0  0  0  0  0  0  0  0  0
  -41.4099   58.7700   65.2041 C   0  0  0  0  0  0  0  0  0  0  0  0
  -40.9296   60.2128   65.2756 C   0  0  0  0  0  0  0  0  0  0  0  0
  -40.7642   60.8009   63.8831 C   0  0  0  0  0  0  0  0  0  0  0  0
  -42.1045   60.8874   63.1602 C   0  0  0  0  0  0  0  0  0  0  0  0
  -41.9318   61.6350   61.8523 C   0  0  0  0  0  0  0  0  0  0  0  0
  -42.5960   62.6795   61.6300 O   0  0  0  0  0  0  0  0  0  0  0  0
  -41.1283   61.2146   60.9801 O   0  0  0  0  0  0  0  0  0  0  0  0
  -40.6298   60.4371   61.1382 H   0  0  0  0  0  0  0  0  0  0  0  0
 18 19  2  0  0  0
 18 17  1  0  0  0
 18 20  1  0  0  0
 17 16  1  0  0  0
 20 21  1  0  0  0
 16 15  1  0  0  0
 15 14  1  0  0  0
 14 13  1  0  0  0
 13 12  1  0  0  0
 12  1  1  0  0  0
  1  2  1  0  0  0
  2  3  1  0  0  0
  3  4  1  0  0  0
  4  5  1  0  0  0
  5  6  1  0  0  0
  6  7  1  0  0  0
  7  8  1  0  0  0
  8  9  1  0  0  0
  9 10  1  0  0  0
 10 11  1  0  0  0
M  END
> <minimizedAffinity>
-6.52544

> <CNNscore>
0.6390960813

> <CNNaffinity>
6.4771933556

> <CNN_VS>
4.1395487785

> <CNNaffinity_variance>
0.5147330761

$$$$
/media/chris/experiments/cd1a-new-docking/inputs/ligands/4x6d_1_ligand.pdb


 21 20  0  0  0  0  0  0  0  0999 V2000
  -45.8591   56.9394   65.8020 C   0  0  0  0  0  0  0  0  0  0  0  0
  -45.2957   57.9418   64.8254 C   0  0  0  0  0  0  0  0  0  0  0  0
  -44.0888   58.7044   65.1731 C   0  0  0  0  0  0  0  0  0  0  0  0
  -44.0754   60.2112   65.0439 C   0  0  0  0  0  0  0  0  0  0  0  0
  -43.1133   60.6384   63.9360 C   0  0  0  0  0  0  0  0  0  0  0  0
  -41.6726   60.2027   64.1898 C   0  0  0  0  0  0  0  0  0  0  0  0
  -40.7018   60.8681   63.2105 C   0  0  0  0  0  0  0  0  0  0  0  0
  -39.2640   60.3379   63.2668 C   0  0  0  0  0  0  0  0  0  0  0  0
  -38.6356   60.2192   61.8719 C   0  0  0  0  0  0  0  0  0  0  0  0
  -38.0614   58.8264   61.6000 C   0  0  0  0  0  0  0  0  0  0  0  0
  -37.9494   57.9574   62.8585 C   0  0  0  0  0  0  0  0  0  0  0  0
  -47.3742   57.0536   65.7524 C   0  0  0  0  0  0  0  0  0  0  0  0
  -47.8228   58.2806   64.9790 C   0  0  0  0  0  0  0  0  0  0  0  0
  -49.3204   58.5191   65.1461 C   0  0  0  0  0  0  0  0  0  0  0  0
  -49.9847   58.6597   63.7836 C   0  0  0  0  0  0  0  0  0  0  0  0
  -48.9638   58.5286   62.6644 C   0  0  0  0  0  0  0  0  0  0  0  0
  -49.5714   58.9108   61.3185 C   0  0  0  0  0  0  0  0  0  0  0  0
  -50.0416   57.6624   60.5977 C   0  0  0  0  0  0  0  0  0  0  0  0
  -49.3030   57.1121   59.7414 O   0  0  0  0  0  0  0  0  0  0  0  0
  -51.1731   57.1717   60.8468 O   0  0  0  0  0  0  0  0  0  0  0  0
  -51.7293   57.5759   61.4833 H   0  0  0  0  0  0  0  0  0  0  0  0
 18 19  2  0  0  0
 18 17  1  0  0  0
 18 20  1  0  0  0
 17 16  1  0  0  0
 20 21  1  0  0  0
 16 15  1  0  0  0
 15 14  1  0  0  0
 14 13  1  0  0  0
 13 12  1  0  0  0
 12  1  1  0  0  0
  1  2  1  0  0  0
  2  3  1  0  0  0
  3  4  1  0  0  0
  4  5  1  0  0  0
  5  6  1  0  0  0
  6  7  1  0  0  0
  7  8  1  0  0  0
  8  9  1  0  0  0
  9 10  1  0  0  0
 10 11  1  0  0  0
M  END
> <minimizedAffinity>
-6.24417

> <CNNscore>
0.5997130275

> <CNNaffinity>
6.4104309082

> <CNN_VS>
3.8444190025

> <CNNaffinity_variance>
0.9639814496

$$$$
/media/chris/experiments/cd1a-new-docking/inputs/ligands/4x6d_1_ligand.pdb


 21 20  0  0  0  0  0  0  0  0999 V2000
  -44.5740   59.7565   66.0732 C   0  0  0  0  0  0  0  0  0  0  0  0
  -45.9138   59.6129   65.3949 C   0  0  0  0  0  0  0  0  0  0  0  0
  -46.3632   58.2923   64.9333 C   0  0  0  0  0  0  0  0  0  0  0  0
  -47.8314   57.9311   64.9689 C   0  0  0  0  0  0  0  0  0  0  0  0
  -48.6253   59.0159   65.6959 C   0  0  0  0  0  0  0  0  0  0  0  0
  -50.1225   58.9633   65.4034 C   0  0  0  0  0  0  0  0  0  0  0  0
  -50.5928   60.2082   64.6463 C   0  0  0  0  0  0  0  0  0  0  0  0
  -51.1771   59.9349   63.2551 C   0  0  0  0  0  0  0  0  0  0  0  0
  -50.4560   58.7847   62.5399 C   0  0  0  0  0  0  0  0  0  0  0  0
  -49.3346   59.2730   61.6191 C   0  0  0  0  0  0  0  0  0  0  0  0
  -48.5993   58.1361   60.8991 C   0  0  0  0  0  0  0  0  0  0  0  0
  -43.9434   58.3748   66.1388 C   0  0  0  0  0  0  0  0  0  0  0  0
  -42.5087   58.4321   66.6321 C   0  0  0  0  0  0  0  0  0  0  0  0
  -42.0488   59.8746   66.8199 C   0  0  0  0  0  0  0  0  0  0  0  0
  -40.6270   60.0436   66.3026 C   0  0  0  0  0  0  0  0  0  0  0  0
  -40.4395   59.3180   64.9796 C   0  0  0  0  0  0  0  0  0  0  0  0
  -40.6679   60.2576   63.8000 C   0  0  0  0  0  0  0  0  0  0  0  0
  -39.3470   60.5450   63.1130 C   0  0  0  0  0  0  0  0  0  0  0  0
  -39.2144   60.3232   61.8822 O   0  0  0  0  0  0  0  0  0  0  0  0
  -38.3748   61.0017   63.7683 O   0  0  0  0  0  0  0  0  0  0  0  0
  -38.4656   61.1695   64.6856 H   0  0  0  0  0  0  0  0  0  0  0  0
 18 19  2  0  0  0
 18 17  1  0  0  0
 18 20  1  0  0  0
 17 16  1  0  0  0
 20 21  1  0  0  0
 16 15  1  0  0  0
 15 14  1  0  0  0
 14 13  1  0  0  0
 13 12  1  0  0  0
 12  1  1  0  0  0
  1  2  1  0  0  0
  2  3  1  0  0  0
  3  4  1  0  0  0
  4  5  1  0  0  0
  5  6  1  0  0  0
  6  7  1  0  0  0
  7  8  1  0  0  0
  8  9  1  0  0  0
  9 10  1  0  0  0
 10 11  1  0  0  0
M  END
> <minimizedAffinity>
-6.25341

> <CNNscore>
0.5974370241

> <CNNaffinity>
6.2608594894

> <CNN_VS>
3.7404692173

> <CNNaffinity_variance>
0.1902290583

$$$$
/media/chris/experiments/cd1a-new-docking/inputs/ligands/4x6d_1_ligand.pdb


 21 20  0  0  0  0  0  0  0  0999 V2000
  -46.0497   58.2218   64.6842 C   0  0  0  0  0  0  0  0  0  0  0  0
  -45.8717   59.5870   65.3011 C   0  0  0  0  0  0  0  0  0  0  0  0
  -46.9444   60.5852   65.1925 C   0  0  0  0  0  0  0  0  0  0  0  0
  -48.1422   60.5206   66.1136 C   0  0  0  0  0  0  0  0  0  0  0  0
  -49.3439   59.9292   65.3776 C   0  0  0  0  0  0  0  0  0  0  0  0
  -49.8708   60.8310   64.2646 C   0  0  0  0  0  0  0  0  0  0  0  0
  -50.5536   60.0213   63.1590 C   0  0  0  0  0  0  0  0  0  0  0  0
  -50.3524   58.5040   63.2525 C   0  0  0  0  0  0  0  0  0  0  0  0
  -49.5136   57.9583   62.0891 C   0  0  0  0  0  0  0  0  0  0  0  0
  -49.3544   58.9699   60.9511 C   0  0  0  0  0  0  0  0  0  0  0  0
  -48.3436   58.5323   59.8842 C   0  0  0  0  0  0  0  0  0  0  0  0
  -44.6769   57.5741   64.6014 C   0  0  0  0  0  0  0  0  0  0  0  0
  -43.9974   57.5163   65.9578 C   0  0  0  0  0  0  0  0  0  0  0  0
  -42.5208   57.8850   65.8495 C   0  0  0  0  0  0  0  0  0  0  0  0
  -42.1235   58.8022   66.9977 C   0  0  0  0  0  0  0  0  0  0  0  0
  -42.5048   60.2436   66.6997 C   0  0  0  0  0  0  0  0  0  0  0  0
  -42.1402   60.6240   65.2682 C   0  0  0  0  0  0  0  0  0  0  0  0
  -41.0384   61.6657   65.2816 C   0  0  0  0  0  0  0  0  0  0  0  0
  -41.0491   62.6064   64.4470 O   0  0  0  0  0  0  0  0  0  0  0  0
  -40.1051   61.5943   66.1225 O   0  0  0  0  0  0  0  0  0  0  0  0
  -40.0900   60.8964   66.7475 H   0  0  0  0  0  0  0  0  0  0  0  0
 18 19  2  0  0  0
 18 17  1  0  0  0
 18 20  1  0  0  0
 17 16  1  0  0  0
 20 21  1  0  0  0
 16 15  1  0  0  0
 15 14  1  0  0  0
 14 13  1  0  0  0
 13 12  1  0  0  0
 12  1  1  0  0  0
  1  2  1  0  0  0
  2  3  1  0  0  0
  3  4  1  0  0  0
  4  5  1  0  0  0
  5  6  1  0  0  0
  6  7  1  0  0  0
  7  8  1  0  0  0
  8  9  1  0  0  0
  9 10  1  0  0  0
 10 11  1  0  0  0
M  END
> <minimizedAffinity>
-6.64162

> <CNNscore>
0.5824928880

> <CNNaffinity>
6.3481779099

> <CNN_VS>
3.6977684498

> <CNNaffinity_variance>
0.3316114545

$$$$
