/media/chris/experiments/cd1a-new-docking/inputs/ligands/4x6d_1_ligand.pdb


 21 20  0  0  0  0  0  0  0  0999 V2000
  -47.1553   58.8314   64.7157 C   0  0  0  0  0  0  0  0  0  0  0  0
  -48.3370   58.1812   65.3915 C   0  0  0  0  0  0  0  0  0  0  0  0
  -49.6801   58.3213   64.8123 C   0  0  0  0  0  0  0  0  0  0  0  0
  -49.9217   59.2834   63.6706 C   0  0  0  0  0  0  0  0  0  0  0  0
  -50.5192   58.5445   62.4738 C   0  0  0  0  0  0  0  0  0  0  0  0
  -49.5469   58.4074   61.3052 C   0  0  0  0  0  0  0  0  0  0  0  0
  -50.2208   57.7799   60.0820 C   0  0  0  0  0  0  0  0  0  0  0  0
  -49.2660   57.3963   58.9451 C   0  0  0  0  0  0  0  0  0  0  0  0
  -47.8759   58.0220   59.1205 C   0  0  0  0  0  0  0  0  0  0  0  0
  -47.0671   58.0369   57.8208 C   0  0  0  0  0  0  0  0  0  0  0  0
  -47.6205   57.0911   56.7480 C   0  0  0  0  0  0  0  0  0  0  0  0
  -46.1341   59.1580   65.7934 C   0  0  0  0  0  0  0  0  0  0  0  0
  -45.0577   60.0998   65.2841 C   0  0  0  0  0  0  0  0  0  0  0  0
  -43.7916   59.3360   64.9078 C   0  0  0  0  0  0  0  0  0  0  0  0
  -43.1487   58.7403   66.1524 C   0  0  0  0  0  0  0  0  0  0  0  0
  -41.7309   59.2590   66.3338 C   0  0  0  0  0  0  0  0  0  0  0  0
  -41.7265   60.7547   66.6329 C   0  0  0  0  0  0  0  0  0  0  0  0
  -40.6677   61.4405   65.7917 C   0  0  0  0  0  0  0  0  0  0  0  0
  -40.9959   62.0667   64.7516 O   0  0  0  0  0  0  0  0  0  0  0  0
  -39.4556   61.3846   66.1244 O   0  0  0  0  0  0  0  0  0  0  0  0
  -39.2030   60.9201   66.8979 H   0  0  0  0  0  0  0  0  0  0  0  0
 18 19  2  0  0  0
 18 17  1  0  0  0
 18 20  1  0  0  0
 17 16  1  0  0  0
 20 21  1  0  0  0
 16 15  1  0  0  0
 15 14  1  0  0  0
 14 13  1  0  0  0
 13 12  1  0  0  0
 12  1  1  0  0  0
  1  2  1  0  0  0
  2  3  1  0  0  0
  3  4  1  0  0  0
  4  5  1  0  0  0
  5  6  1  0  0  0
  6  7  1  0  0  0
  7  8  1  0  0  0
  8  9  1  0  0  0
  9 10  1  0  0  0
 10 11  1  0  0  0
M  END
> <minimizedAffinity>
-7.07608

> <CNNscore>
0.9580046535

> <CNNaffinity>
7.0812430382

> <CNN_VS>
6.7838635445

> <CNNaffinity_variance>
0.8917707205

$$$$
/media/chris/experiments/cd1a-new-docking/inputs/ligands/4x6d_1_ligand.pdb


 21 20  0  0  0  0  0  0  0  0999 V2000
  -47.0468   58.5252   64.8929 C   0  0  0  0  0  0  0  0  0  0  0  0
  -47.8861   59.1151   65.9990 C   0  0  0  0  0  0  0  0  0  0  0  0
  -48.9862   60.0332   65.6734 C   0  0  0  0  0  0  0  0  0  0  0  0
  -50.3762   59.4963   65.4147 C   0  0  0  0  0  0  0  0  0  0  0  0
  -51.1013   60.3747   64.3959 C   0  0  0  0  0  0  0  0  0  0  0  0
  -50.8871   59.9244   62.9533 C   0  0  0  0  0  0  0  0  0  0  0  0
  -50.6558   58.4136   62.8629 C   0  0  0  0  0  0  0  0  0  0  0  0
  -49.7181   57.9708   61.7333 C   0  0  0  0  0  0  0  0  0  0  0  0
  -50.4873   57.5431   60.4764 C   0  0  0  0  0  0  0  0  0  0  0  0
  -49.5778   57.3740   59.2567 C   0  0  0  0  0  0  0  0  0  0  0  0
  -48.2701   58.1686   59.3572 C   0  0  0  0  0  0  0  0  0  0  0  0
  -45.8051   57.9237   65.5313 C   0  0  0  0  0  0  0  0  0  0  0  0
  -44.5845   58.0716   64.6406 C   0  0  0  0  0  0  0  0  0  0  0  0
  -43.3571   57.4277   65.2782 C   0  0  0  0  0  0  0  0  0  0  0  0
  -42.3184   58.4907   65.6078 C   0  0  0  0  0  0  0  0  0  0  0  0
  -42.6985   59.8306   64.9975 C   0  0  0  0  0  0  0  0  0  0  0  0
  -41.5651   60.3863   64.1415 C   0  0  0  0  0  0  0  0  0  0  0  0
  -41.2313   61.7961   64.5891 C   0  0  0  0  0  0  0  0  0  0  0  0
  -41.4643   62.7711   63.8296 O   0  0  0  0  0  0  0  0  0  0  0  0
  -40.7159   62.0002   65.7186 O   0  0  0  0  0  0  0  0  0  0  0  0
  -40.5393   61.2791   66.2902 H   0  0  0  0  0  0  0  0  0  0  0  0
 18 19  2  0  0  0
 18 17  1  0  0  0
 18 20  1  0  0  0
 17 16  1  0  0  0
 20 21  1  0  0  0
 16 15  1  0  0  0
 15 14  1  0  0  0
 14 13  1  0  0  0
 13 12  1  0  0  0
 12  1  1  0  0  0
  1  2  1  0  0  0
  2  3  1  0  0  0
  3  4  1  0  0  0
  4  5  1  0  0  0
  5  6  1  0  0  0
  6  7  1  0  0  0
  7  8  1  0  0  0
  8  9  1  0  0  0
  9 10  1  0  0  0
 10 11  1  0  0  0
M  END
> <minimizedAffinity>
-6.78149

> <CNNscore>
0.8941057920

> <CNNaffinity>
6.8133420944

> <CNN_VS>
6.0918488503

> <CNNaffinity_variance>
0.7319060564

$$$$
/media/chris/experiments/cd1a-new-docking/inputs/ligands/4x6d_1_ligand.pdb


 21 20  0  0  0  0  0  0  0  0999 V2000
  -48.0659   57.9324   65.4657 C   0  0  0  0  0  0  0  0  0  0  0  0
  -49.0278   59.0181   65.8801 C   0  0  0  0  0  0  0  0  0  0  0  0
  -50.3587   59.0925   65.2620 C   0  0  0  0  0  0  0  0  0  0  0  0
  -50.7694   60.3214   64.4818 C   0  0  0  0  0  0  0  0  0  0  0  0
  -51.0329   59.9570   63.0213 C   0  0  0  0  0  0  0  0  0  0  0  0
  -49.8047   60.1207   62.1298 C   0  0  0  0  0  0  0  0  0  0  0  0
  -49.1510   58.7718   61.8177 C   0  0  0  0  0  0  0  0  0  0  0  0
  -50.0235   57.8034   61.0100 C   0  0  0  0  0  0  0  0  0  0  0  0
  -49.5120   57.6229   59.5747 C   0  0  0  0  0  0  0  0  0  0  0  0
  -48.1452   58.2744   59.3489 C   0  0  0  0  0  0  0  0  0  0  0  0
  -47.1797   57.3997   58.5399 C   0  0  0  0  0  0  0  0  0  0  0  0
  -46.6577   58.4506   65.7094 C   0  0  0  0  0  0  0  0  0  0  0  0
  -46.4515   59.8291   65.1074 C   0  0  0  0  0  0  0  0  0  0  0  0
  -44.9788   60.2268   65.1353 C   0  0  0  0  0  0  0  0  0  0  0  0
  -44.3070   59.6649   66.3805 C   0  0  0  0  0  0  0  0  0  0  0  0
  -42.8418   59.3561   66.1159 C   0  0  0  0  0  0  0  0  0  0  0  0
  -41.9315   60.2825   66.9156 C   0  0  0  0  0  0  0  0  0  0  0  0
  -40.9307   60.9416   65.9866 C   0  0  0  0  0  0  0  0  0  0  0  0
  -40.4468   60.2974   65.0209 O   0  0  0  0  0  0  0  0  0  0  0  0
  -40.5743   62.1332   66.1768 O   0  0  0  0  0  0  0  0  0  0  0  0
  -40.9303   62.6198   66.8940 H   0  0  0  0  0  0  0  0  0  0  0  0
 18 19  2  0  0  0
 18 17  1  0  0  0
 18 20  1  0  0  0
 17 16  1  0  0  0
 20 21  1  0  0  0
 16 15  1  0  0  0
 15 14  1  0  0  0
 14 13  1  0  0  0
 13 12  1  0  0  0
 12  1  1  0  0  0
  1  2  1  0  0  0
  2  3  1  0  0  0
  3  4  1  0  0  0
  4  5  1  0  0  0
  5  6  1  0  0  0
  6  7  1  0  0  0
  7  8  1  0  0  0
  8  9  1  0  0  0
  9 10  1  0  0  0
 10 11  1  0  0  0
M  END
> <minimizedAffinity>
-6.90087

> <CNNscore>
0.8179143667

> <CNNaffinity>
6.6357316971

> <CNN_VS>
5.4274601936

> <CNNaffinity_variance>
0.4961529374

$$$$
/media/chris/experiments/cd1a-new-docking/inputs/ligands/4x6d_1_ligand.pdb


 21 20  0  0  0  0  0  0  0  0999 V2000
  -45.9731   57.3560   65.6101 C   0  0  0  0  0  0  0  0  0  0  0  0
  -46.2788   58.6662   66.2925 C   0  0  0  0  0  0  0  0  0  0  0  0
  -46.4878   59.8788   65.4896 C   0  0  0  0  0  0  0  0  0  0  0  0
  -47.8892   60.3529   65.1749 C   0  0  0  0  0  0  0  0  0  0  0  0
  -48.9152   59.5063   65.9272 C   0  0  0  0  0  0  0  0  0  0  0  0
  -50.0565   59.0159   65.0403 C   0  0  0  0  0  0  0  0  0  0  0  0
  -50.8618   60.1824   64.4616 C   0  0  0  0  0  0  0  0  0  0  0  0
  -51.1777   60.0690   62.9654 C   0  0  0  0  0  0  0  0  0  0  0  0
  -49.9099   60.1030   62.1018 C   0  0  0  0  0  0  0  0  0  0  0  0
  -49.7184   58.8233   61.2838 C   0  0  0  0  0  0  0  0  0  0  0  0
  -50.8370   57.7949   61.4909 C   0  0  0  0  0  0  0  0  0  0  0  0
  -44.6366   57.5092   64.9021 C   0  0  0  0  0  0  0  0  0  0  0  0
  -43.4710   57.1939   65.8224 C   0  0  0  0  0  0  0  0  0  0  0  0
  -42.5389   58.3939   65.9604 C   0  0  0  0  0  0  0  0  0  0  0  0
  -42.7685   59.3711   64.8160 C   0  0  0  0  0  0  0  0  0  0  0  0
  -41.4686   60.0461   64.4077 C   0  0  0  0  0  0  0  0  0  0  0  0
  -40.3374   59.6855   65.3652 C   0  0  0  0  0  0  0  0  0  0  0  0
  -39.7026   60.9521   65.9054 C   0  0  0  0  0  0  0  0  0  0  0  0
  -40.4030   61.9805   66.0886 O   0  0  0  0  0  0  0  0  0  0  0  0
  -38.4729   60.9853   66.1695 O   0  0  0  0  0  0  0  0  0  0  0  0
  -37.9443   60.2232   66.0358 H   0  0  0  0  0  0  0  0  0  0  0  0
 18 19  2  0  0  0
 18 17  1  0  0  0
 18 20  1  0  0  0
 17 16  1  0  0  0
 20 21  1  0  0  0
 16 15  1  0  0  0
 15 14  1  0  0  0
 14 13  1  0  0  0
 13 12  1  0  0  0
 12  1  1  0  0  0
  1  2  1  0  0  0
  2  3  1  0  0  0
  3  4  1  0  0  0
  4  5  1  0  0  0
  5  6  1  0  0  0
  6  7  1  0  0  0
  7  8  1  0  0  0
  8  9  1  0  0  0
  9 10  1  0  0  0
 10 11  1  0  0  0
M  END
> <minimizedAffinity>
-6.70550

> <CNNscore>
0.7804661393

> <CNNaffinity>
6.5253477097

> <CNN_VS>
5.0928130150

> <CNNaffinity_variance>
0.4352758825

$$$$
/media/chris/experiments/cd1a-new-docking/inputs/ligands/4x6d_1_ligand.pdb


 21 20  0  0  0  0  0  0  0  0999 V2000
  -46.4593   58.5103   65.8890 C   0  0  0  0  0  0  0  0  0  0  0  0
  -47.9164   58.3653   65.5263 C   0  0  0  0  0  0  0  0  0  0  0  0
  -48.4852   59.1759   64.4408 C   0  0  0  0  0  0  0  0  0  0  0  0
  -49.9137   58.9580   63.9944 C   0  0  0  0  0  0  0  0  0  0  0  0
  -50.1259   59.5402   62.5975 C   0  0  0  0  0  0  0  0  0  0  0  0
  -50.4660   58.4828   61.5506 C   0  0  0  0  0  0  0  0  0  0  0  0
  -49.3385   57.4582   61.3975 C   0  0  0  0  0  0  0  0  0  0  0  0
  -48.4434   57.6625   60.1693 C   0  0  0  0  0  0  0  0  0  0  0  0
  -49.1680   57.3185   58.8612 C   0  0  0  0  0  0  0  0  0  0  0  0
  -48.2492   57.3976   57.6392 C   0  0  0  0  0  0  0  0  0  0  0  0
  -46.7796   57.6498   57.9973 C   0  0  0  0  0  0  0  0  0  0  0  0
  -45.9639   59.8132   65.2823 C   0  0  0  0  0  0  0  0  0  0  0  0
  -44.4593   59.9635   65.4195 C   0  0  0  0  0  0  0  0  0  0  0  0
  -43.9184   61.0000   64.4393 C   0  0  0  0  0  0  0  0  0  0  0  0
  -42.6571   60.4775   63.7659 C   0  0  0  0  0  0  0  0  0  0  0  0
  -41.8317   61.6200   63.1954 C   0  0  0  0  0  0  0  0  0  0  0  0
  -42.0961   61.7982   61.7039 C   0  0  0  0  0  0  0  0  0  0  0  0
  -40.9191   61.2665   60.9096 C   0  0  0  0  0  0  0  0  0  0  0  0
  -39.9472   60.7324   61.5027 O   0  0  0  0  0  0  0  0  0  0  0  0
  -40.9036   61.3596   59.6549 O   0  0  0  0  0  0  0  0  0  0  0  0
  -41.6239   61.7562   59.2057 H   0  0  0  0  0  0  0  0  0  0  0  0
 18 19  2  0  0  0
 18 17  1  0  0  0
 18 20  1  0  0  0
 17 16  1  0  0  0
 20 21  1  0  0  0
 16 15  1  0  0  0
 15 14  1  0  0  0
 14 13  1  0  0  0
 13 12  1  0  0  0
 12  1  1  0  0  0
  1  2  1  0  0  0
  2  3  1  0  0  0
  3  4  1  0  0  0
  4  5  1  0  0  0
  5  6  1  0  0  0
  6  7  1  0  0  0
  7  8  1  0  0  0
  8  9  1  0  0  0
  9 10  1  0  0  0
 10 11  1  0  0  0
M  END
> <minimizedAffinity>
-6.69486

> <CNNscore>
0.7680270076

> <CNNaffinity>
6.7542366982

> <CNN_VS>
5.1874361038

> <CNNaffinity_variance>
0.7105098963

$$$$
/media/chris/experiments/cd1a-new-docking/inputs/ligands/4x6d_1_ligand.pdb


 21 20  0  0  0  0  0  0  0  0999 V2000
  -49.9998   58.5831   62.7681 C   0  0  0  0  0  0  0  0  0  0  0  0
  -50.8810   59.6454   63.3770 C   0  0  0  0  0  0  0  0  0  0  0  0
  -50.6435   60.0918   64.7566 C   0  0  0  0  0  0  0  0  0  0  0  0
  -49.7701   59.2749   65.6826 C   0  0  0  0  0  0  0  0  0  0  0  0
  -48.5981   60.1176   66.1843 C   0  0  0  0  0  0  0  0  0  0  0  0
  -47.5762   60.4349   65.0958 C   0  0  0  0  0  0  0  0  0  0  0  0
  -46.1638   60.0110   65.5080 C   0  0  0  0  0  0  0  0  0  0  0  0
  -46.0847   59.2169   66.8174 C   0  0  0  0  0  0  0  0  0  0  0  0
  -45.7453   57.7396   66.5790 C   0  0  0  0  0  0  0  0  0  0  0  0
  -45.2550   57.4691   65.1542 C   0  0  0  0  0  0  0  0  0  0  0  0
  -43.8059   56.9711   65.0929 C   0  0  0  0  0  0  0  0  0  0  0  0
  -50.1553   58.6690   61.2583 C   0  0  0  0  0  0  0  0  0  0  0  0
  -50.6032   57.3471   60.6609 C   0  0  0  0  0  0  0  0  0  0  0  0
  -49.5256   56.7599   59.7544 C   0  0  0  0  0  0  0  0  0  0  0  0
  -48.5713   57.8541   59.2969 C   0  0  0  0  0  0  0  0  0  0  0  0
  -47.2229   57.2710   58.9046 C   0  0  0  0  0  0  0  0  0  0  0  0
  -46.8976   57.5712   57.4450 C   0  0  0  0  0  0  0  0  0  0  0  0
  -47.5862   56.5592   56.5500 C   0  0  0  0  0  0  0  0  0  0  0  0
  -47.3888   55.3289   56.7201 O   0  0  0  0  0  0  0  0  0  0  0  0
  -48.3545   56.9418   55.6300 O   0  0  0  0  0  0  0  0  0  0  0  0
  -48.5067   57.8567   55.4969 H   0  0  0  0  0  0  0  0  0  0  0  0
 18 19  2  0  0  0
 18 17  1  0  0  0
 18 20  1  0  0  0
 17 16  1  0  0  0
 20 21  1  0  0  0
 16 15  1  0  0  0
 15 14  1  0  0  0
 14 13  1  0  0  0
 13 12  1  0  0  0
 12  1  1  0  0  0
  1  2  1  0  0  0
  2  3  1  0  0  0
  3  4  1  0  0  0
  4  5  1  0  0  0
  5  6  1  0  0  0
  6  7  1  0  0  0
  7  8  1  0  0  0
  8  9  1  0  0  0
  9 10  1  0  0  0
 10 11  1  0  0  0
M  END
> <minimizedAffinity>
-7.41614

> <CNNscore>
0.7620181441

> <CNNaffinity>
6.7572426796

> <CNN_VS>
5.1491413116

> <CNNaffinity_variance>
0.2530247569

$$$$
/media/chris/experiments/cd1a-new-docking/inputs/ligands/4x6d_1_ligand.pdb


 21 20  0  0  0  0  0  0  0  0999 V2000
  -48.5467   59.0552   63.4848 C   0  0  0  0  0  0  0  0  0  0  0  0
  -47.6784   58.3276   64.4810 C   0  0  0  0  0  0  0  0  0  0  0  0
  -47.1615   59.0382   65.6586 C   0  0  0  0  0  0  0  0  0  0  0  0
  -45.8110   58.6766   66.2354 C   0  0  0  0  0  0  0  0  0  0  0  0
  -45.1654   57.5627   65.4122 C   0  0  0  0  0  0  0  0  0  0  0  0
  -44.0914   58.0691   64.4531 C   0  0  0  0  0  0  0  0  0  0  0  0
  -42.7856   58.3877   65.1864 C   0  0  0  0  0  0  0  0  0  0  0  0
  -42.4144   59.8750   65.2265 C   0  0  0  0  0  0  0  0  0  0  0  0
  -43.0295   60.6569   64.0583 C   0  0  0  0  0  0  0  0  0  0  0  0
  -41.9887   61.0801   63.0184 C   0  0  0  0  0  0  0  0  0  0  0  0
  -42.4176   62.2953   62.1871 C   0  0  0  0  0  0  0  0  0  0  0  0
  -49.7732   58.1936   63.2309 C   0  0  0  0  0  0  0  0  0  0  0  0
  -50.5827   58.6980   62.0497 C   0  0  0  0  0  0  0  0  0  0  0  0
  -50.4995   57.7309   60.8727 C   0  0  0  0  0  0  0  0  0  0  0  0
  -49.2012   57.9461   60.1075 C   0  0  0  0  0  0  0  0  0  0  0  0
  -49.2555   57.2748   58.7441 C   0  0  0  0  0  0  0  0  0  0  0  0
  -47.8619   56.8699   58.2747 C   0  0  0  0  0  0  0  0  0  0  0  0
  -47.9530   56.2154   56.9100 C   0  0  0  0  0  0  0  0  0  0  0  0
  -48.2298   56.9061   55.8961 O   0  0  0  0  0  0  0  0  0  0  0  0
  -47.7574   54.9790   56.7826 O   0  0  0  0  0  0  0  0  0  0  0  0
  -47.5507   54.4576   57.5331 H   0  0  0  0  0  0  0  0  0  0  0  0
 18 19  2  0  0  0
 18 17  1  0  0  0
 18 20  1  0  0  0
 17 16  1  0  0  0
 20 21  1  0  0  0
 16 15  1  0  0  0
 15 14  1  0  0  0
 14 13  1  0  0  0
 13 12  1  0  0  0
 12  1  1  0  0  0
  1  2  1  0  0  0
  2  3  1  0  0  0
  3  4  1  0  0  0
  4  5  1  0  0  0
  5  6  1  0  0  0
  6  7  1  0  0  0
  7  8  1  0  0  0
  8  9  1  0  0  0
  9 10  1  0  0  0
 10 11  1  0  0  0
M  END
> <minimizedAffinity>
-6.82552

> <CNNscore>
0.7485834956

> <CNNaffinity>
6.7834939957

> <CNN_VS>
5.0780115128

> <CNNaffinity_variance>
0.7375475168

$$$$
/media/chris/experiments/cd1a-new-docking/inputs/ligands/4x6d_1_ligand.pdb


 21 20  0  0  0  0  0  0  0  0999 V2000
  -49.1037   58.2838   63.2250 C   0  0  0  0  0  0  0  0  0  0  0  0
  -49.7456   58.6806   64.5312 C   0  0  0  0  0  0  0  0  0  0  0  0
  -48.9372   58.7379   65.7569 C   0  0  0  0  0  0  0  0  0  0  0  0
  -48.1481   59.9838   66.0922 C   0  0  0  0  0  0  0  0  0  0  0  0
  -46.6651   59.6465   66.2406 C   0  0  0  0  0  0  0  0  0  0  0  0
  -46.3453   58.1882   65.9225 C   0  0  0  0  0  0  0  0  0  0  0  0
  -45.4939   58.0612   64.6564 C   0  0  0  0  0  0  0  0  0  0  0  0
  -44.0914   57.4818   64.8774 C   0  0  0  0  0  0  0  0  0  0  0  0
  -43.6679   57.5368   66.3512 C   0  0  0  0  0  0  0  0  0  0  0  0
  -42.5122   58.5101   66.5973 C   0  0  0  0  0  0  0  0  0  0  0  0
  -42.9729   59.9005   67.0515 C   0  0  0  0  0  0  0  0  0  0  0  0
  -50.0607   58.6695   62.1085 C   0  0  0  0  0  0  0  0  0  0  0  0
  -50.3177   57.5119   61.1604 C   0  0  0  0  0  0  0  0  0  0  0  0
  -49.7734   57.8111   59.7668 C   0  0  0  0  0  0  0  0  0  0  0  0
  -48.2679   58.0281   59.8269 C   0  0  0  0  0  0  0  0  0  0  0  0
  -47.6011   57.5770   58.5369 C   0  0  0  0  0  0  0  0  0  0  0  0
  -47.8069   56.0837   58.3047 C   0  0  0  0  0  0  0  0  0  0  0  0
  -47.9711   55.8155   56.8214 C   0  0  0  0  0  0  0  0  0  0  0  0
  -48.9558   56.2903   56.1995 O   0  0  0  0  0  0  0  0  0  0  0  0
  -47.1284   55.1143   56.2040 O   0  0  0  0  0  0  0  0  0  0  0  0
  -46.3920   54.7570   56.6602 H   0  0  0  0  0  0  0  0  0  0  0  0
 18 19  2  0  0  0
 18 17  1  0  0  0
 18 20  1  0  0  0
 17 16  1  0  0  0
 20 21  1  0  0  0
 16 15  1  0  0  0
 15 14  1  0  0  0
 14 13  1  0  0  0
 13 12  1  0  0  0
 12  1  1  0  0  0
  1  2  1  0  0  0
  2  3  1  0  0  0
  3  4  1  0  0  0
  4  5  1  0  0  0
  5  6  1  0  0  0
  6  7  1  0  0  0
  7  8  1  0  0  0
  8  9  1  0  0  0
  9 10  1  0  0  0
 10 11  1  0  0  0
M  END
> <minimizedAffinity>
-7.12457

> <CNNscore>
0.7178479433

> <CNNaffinity>
6.7401466370

> <CNN_VS>
4.8384003639

> <CNNaffinity_variance>
0.4700837135

$$$$
/media/chris/experiments/cd1a-new-docking/inputs/ligands/4x6d_1_ligand.pdb


 21 20  0  0  0  0  0  0  0  0999 V2000
  -48.0256   60.4863   64.5843 C   0  0  0  0  0  0  0  0  0  0  0  0
  -49.0710   60.9608   63.6057 C   0  0  0  0  0  0  0  0  0  0  0  0
  -50.4853   60.6295   63.8271 C   0  0  0  0  0  0  0  0  0  0  0  0
  -51.1213   59.4710   63.0916 C   0  0  0  0  0  0  0  0  0  0  0  0
  -50.1065   58.8195   62.1530 C   0  0  0  0  0  0  0  0  0  0  0  0
  -50.7183   57.7441   61.2590 C   0  0  0  0  0  0  0  0  0  0  0  0
  -50.0446   57.7033   59.8847 C   0  0  0  0  0  0  0  0  0  0  0  0
  -48.6390   58.3143   59.8368 C   0  0  0  0  0  0  0  0  0  0  0  0
  -47.6383   57.4080   59.1075 C   0  0  0  0  0  0  0  0  0  0  0  0
  -47.2151   57.9699   57.7478 C   0  0  0  0  0  0  0  0  0  0  0  0
  -47.3813   56.9701   56.5970 C   0  0  0  0  0  0  0  0  0  0  0  0
  -48.7518   59.9706   65.8162 C   0  0  0  0  0  0  0  0  0  0  0  0
  -48.7341   58.4542   65.8883 C   0  0  0  0  0  0  0  0  0  0  0  0
  -47.5598   57.8798   65.1017 C   0  0  0  0  0  0  0  0  0  0  0  0
  -46.7703   56.9106   65.9703 C   0  0  0  0  0  0  0  0  0  0  0  0
  -45.2763   57.1687   65.8539 C   0  0  0  0  0  0  0  0  0  0  0  0
  -44.9813   58.2213   64.7903 C   0  0  0  0  0  0  0  0  0  0  0  0
  -43.5144   58.6015   64.8413 C   0  0  0  0  0  0  0  0  0  0  0  0
  -43.1039   59.6172   64.2235 O   0  0  0  0  0  0  0  0  0  0  0  0
  -42.6981   57.9033   65.4965 O   0  0  0  0  0  0  0  0  0  0  0  0
  -42.9962   57.1451   65.9594 H   0  0  0  0  0  0  0  0  0  0  0  0
 18 19  2  0  0  0
 18 17  1  0  0  0
 18 20  1  0  0  0
 17 16  1  0  0  0
 20 21  1  0  0  0
 16 15  1  0  0  0
 15 14  1  0  0  0
 14 13  1  0  0  0
 13 12  1  0  0  0
 12  1  1  0  0  0
  1  2  1  0  0  0
  2  3  1  0  0  0
  3  4  1  0  0  0
  4  5  1  0  0  0
  5  6  1  0  0  0
  6  7  1  0  0  0
  7  8  1  0  0  0
  8  9  1  0  0  0
  9 10  1  0  0  0
 10 11  1  0  0  0
M  END
> <minimizedAffinity>
-6.96785

> <CNNscore>
0.7002307773

> <CNNaffinity>
6.6406211853

> <CNN_VS>
4.6499671936

> <CNNaffinity_variance>
0.4387824535

$$$$
