/media/chris/experiments/cd1a-new-docking/inputs/ligands/4x6d_1_ligand.pdb


 21 20  0  0  0  0  0  0  0  0999 V2000
  -46.1520   58.3479   64.9728 C   0  0  0  0  0  0  0  0  0  0  0  0
  -47.5479   58.4138   65.5411 C   0  0  0  0  0  0  0  0  0  0  0  0
  -48.6740   57.8498   64.7843 C   0  0  0  0  0  0  0  0  0  0  0  0
  -49.9193   58.6736   64.5432 C   0  0  0  0  0  0  0  0  0  0  0  0
  -50.2680   58.6820   63.0553 C   0  0  0  0  0  0  0  0  0  0  0  0
  -49.0461   58.5474   62.1505 C   0  0  0  0  0  0  0  0  0  0  0  0
  -49.3362   59.0487   60.7333 C   0  0  0  0  0  0  0  0  0  0  0  0
  -49.9964   58.0200   59.8074 C   0  0  0  0  0  0  0  0  0  0  0  0
  -48.9929   57.3907   58.8319 C   0  0  0  0  0  0  0  0  0  0  0  0
  -47.6732   58.1634   58.7626 C   0  0  0  0  0  0  0  0  0  0  0  0
  -46.8318   57.8219   57.5269 C   0  0  0  0  0  0  0  0  0  0  0  0
  -45.3259   57.4597   65.8891 C   0  0  0  0  0  0  0  0  0  0  0  0
  -43.8361   57.6486   65.6656 C   0  0  0  0  0  0  0  0  0  0  0  0
  -43.5601   58.8829   64.8124 C   0  0  0  0  0  0  0  0  0  0  0  0
  -43.1934   60.0636   65.7007 C   0  0  0  0  0  0  0  0  0  0  0  0
  -42.0267   59.7171   66.6121 C   0  0  0  0  0  0  0  0  0  0  0  0
  -40.7322   59.5747   65.8181 C   0  0  0  0  0  0  0  0  0  0  0  0
  -40.1875   60.9485   65.4791 C   0  0  0  0  0  0  0  0  0  0  0  0
  -40.5218   61.9472   66.1665 O   0  0  0  0  0  0  0  0  0  0  0  0
  -39.4028   61.1002   64.5073 O   0  0  0  0  0  0  0  0  0  0  0  0
  -39.1489   60.3611   63.9904 H   0  0  0  0  0  0  0  0  0  0  0  0
 18 19  2  0  0  0
 18 17  1  0  0  0
 18 20  1  0  0  0
 17 16  1  0  0  0
 20 21  1  0  0  0
 16 15  1  0  0  0
 15 14  1  0  0  0
 14 13  1  0  0  0
 13 12  1  0  0  0
 12  1  1  0  0  0
  1  2  1  0  0  0
  2  3  1  0  0  0
  3  4  1  0  0  0
  4  5  1  0  0  0
  5  6  1  0  0  0
  6  7  1  0  0  0
  7  8  1  0  0  0
  8  9  1  0  0  0
  9 10  1  0  0  0
 10 11  1  0  0  0
M  END
> <minimizedAffinity>
-6.85841

> <CNNscore>
0.9580129385

> <CNNaffinity>
7.1441092491

> <CNN_VS>
6.8441491127

> <CNNaffinity_variance>
1.0251686573

$$$$
/media/chris/experiments/cd1a-new-docking/inputs/ligands/4x6d_1_ligand.pdb


 21 20  0  0  0  0  0  0  0  0999 V2000
  -47.8377   58.4127   65.7377 C   0  0  0  0  0  0  0  0  0  0  0  0
  -48.6269   59.2058   64.7257 C   0  0  0  0  0  0  0  0  0  0  0  0
  -50.0219   58.8445   64.4387 C   0  0  0  0  0  0  0  0  0  0  0  0
  -50.8100   59.6116   63.4005 C   0  0  0  0  0  0  0  0  0  0  0  0
  -50.3564   59.2182   61.9951 C   0  0  0  0  0  0  0  0  0  0  0  0
  -50.7903   57.8107   61.5950 C   0  0  0  0  0  0  0  0  0  0  0  0
  -49.9050   57.2428   60.4825 C   0  0  0  0  0  0  0  0  0  0  0  0
  -48.7772   58.1719   60.0177 C   0  0  0  0  0  0  0  0  0  0  0  0
  -47.6648   57.4106   59.2845 C   0  0  0  0  0  0  0  0  0  0  0  0
  -47.2489   58.0883   57.9764 C   0  0  0  0  0  0  0  0  0  0  0  0
  -47.3231   57.1592   56.7587 C   0  0  0  0  0  0  0  0  0  0  0  0
  -46.9608   59.3907   66.5029 C   0  0  0  0  0  0  0  0  0  0  0  0
  -46.1054   60.2302   65.5710 C   0  0  0  0  0  0  0  0  0  0  0  0
  -44.7952   59.5222   65.2397 C   0  0  0  0  0  0  0  0  0  0  0  0
  -44.0874   59.1020   66.5203 C   0  0  0  0  0  0  0  0  0  0  0  0
  -42.5774   59.1442   66.3465 C   0  0  0  0  0  0  0  0  0  0  0  0
  -41.9945   60.4339   66.9150 C   0  0  0  0  0  0  0  0  0  0  0  0
  -41.2259   61.1671   65.8330 C   0  0  0  0  0  0  0  0  0  0  0  0
  -41.3789   60.8506   64.6255 O   0  0  0  0  0  0  0  0  0  0  0  0
  -40.4279   62.0921   66.1345 O   0  0  0  0  0  0  0  0  0  0  0  0
  -40.3085   62.3338   67.0318 H   0  0  0  0  0  0  0  0  0  0  0  0
 18 19  2  0  0  0
 18 17  1  0  0  0
 18 20  1  0  0  0
 17 16  1  0  0  0
 20 21  1  0  0  0
 16 15  1  0  0  0
 15 14  1  0  0  0
 14 13  1  0  0  0
 13 12  1  0  0  0
 12  1  1  0  0  0
  1  2  1  0  0  0
  2  3  1  0  0  0
  3  4  1  0  0  0
  4  5  1  0  0  0
  5  6  1  0  0  0
  6  7  1  0  0  0
  7  8  1  0  0  0
  8  9  1  0  0  0
  9 10  1  0  0  0
 10 11  1  0  0  0
M  END
> <minimizedAffinity>
-6.99404

> <CNNscore>
0.9445493221

> <CNNaffinity>
7.0563035011

> <CNN_VS>
6.6650266647

> <CNNaffinity_variance>
0.8408526182

$$$$
/media/chris/experiments/cd1a-new-docking/inputs/ligands/4x6d_1_ligand.pdb


 21 20  0  0  0  0  0  0  0  0999 V2000
  -47.0732   60.7937   65.2665 C   0  0  0  0  0  0  0  0  0  0  0  0
  -48.1801   60.2951   66.1621 C   0  0  0  0  0  0  0  0  0  0  0  0
  -48.8761   59.0423   65.8379 C   0  0  0  0  0  0  0  0  0  0  0  0
  -50.3319   59.0629   65.4286 C   0  0  0  0  0  0  0  0  0  0  0  0
  -50.5784   60.1724   64.4070 C   0  0  0  0  0  0  0  0  0  0  0  0
  -51.1769   59.6631   63.0985 C   0  0  0  0  0  0  0  0  0  0  0  0
  -50.3207   58.5544   62.4810 C   0  0  0  0  0  0  0  0  0  0  0  0
  -51.0390   57.6892   61.4385 C   0  0  0  0  0  0  0  0  0  0  0  0
  -50.0567   56.8805   60.5808 C   0  0  0  0  0  0  0  0  0  0  0  0
  -49.5634   57.6573   59.3573 C   0  0  0  0  0  0  0  0  0  0  0  0
  -48.1643   58.2576   59.5406 C   0  0  0  0  0  0  0  0  0  0  0  0
  -46.0975   59.6459   65.0619 C   0  0  0  0  0  0  0  0  0  0  0  0
  -44.6612   60.0772   65.2982 C   0  0  0  0  0  0  0  0  0  0  0  0
  -44.1066   59.4640   66.5805 C   0  0  0  0  0  0  0  0  0  0  0  0
  -42.8831   60.2404   67.0469 C   0  0  0  0  0  0  0  0  0  0  0  0
  -41.6081   59.4530   66.7891 C   0  0  0  0  0  0  0  0  0  0  0  0
  -41.1084   59.6669   65.3640 C   0  0  0  0  0  0  0  0  0  0  0  0
  -40.3913   60.9995   65.2691 C   0  0  0  0  0  0  0  0  0  0  0  0
  -40.5972   61.7585   64.2878 O   0  0  0  0  0  0  0  0  0  0  0  0
  -39.5833   61.3529   66.1666 O   0  0  0  0  0  0  0  0  0  0  0  0
  -39.4245   60.7930   66.9010 H   0  0  0  0  0  0  0  0  0  0  0  0
 18 19  2  0  0  0
 18 17  1  0  0  0
 18 20  1  0  0  0
 17 16  1  0  0  0
 20 21  1  0  0  0
 16 15  1  0  0  0
 15 14  1  0  0  0
 14 13  1  0  0  0
 13 12  1  0  0  0
 12  1  1  0  0  0
  1  2  1  0  0  0
  2  3  1  0  0  0
  3  4  1  0  0  0
  4  5  1  0  0  0
  5  6  1  0  0  0
  6  7  1  0  0  0
  7  8  1  0  0  0
  8  9  1  0  0  0
  9 10  1  0  0  0
 10 11  1  0  0  0
M  END
> <minimizedAffinity>
-7.17024

> <CNNscore>
0.8363827467

> <CNNaffinity>
6.4649581909

> <CNN_VS>
5.4071793556

> <CNNaffinity_variance>
0.3810963035

$$$$
/media/chris/experiments/cd1a-new-docking/inputs/ligands/4x6d_1_ligand.pdb


 21 20  0  0  0  0  0  0  0  0999 V2000
  -47.8034   60.8204   64.6363 C   0  0  0  0  0  0  0  0  0  0  0  0
  -49.1263   60.9272   63.9190 C   0  0  0  0  0  0  0  0  0  0  0  0
  -49.3236   60.2325   62.6394 C   0  0  0  0  0  0  0  0  0  0  0  0
  -49.5260   58.7340   62.6086 C   0  0  0  0  0  0  0  0  0  0  0  0
  -50.9216   58.3996   62.0831 C   0  0  0  0  0  0  0  0  0  0  0  0
  -50.9067   57.3962   60.9330 C   0  0  0  0  0  0  0  0  0  0  0  0
  -49.9846   57.8522   59.7992 C   0  0  0  0  0  0  0  0  0  0  0  0
  -48.8830   56.8542   59.4223 C   0  0  0  0  0  0  0  0  0  0  0  0
  -47.5250   57.5395   59.2204 C   0  0  0  0  0  0  0  0  0  0  0  0
  -47.2587   57.9025   57.7573 C   0  0  0  0  0  0  0  0  0  0  0  0
  -47.9295   56.9487   56.7614 C   0  0  0  0  0  0  0  0  0  0  0  0
  -48.0559   60.1177   65.9605 C   0  0  0  0  0  0  0  0  0  0  0  0
  -47.6520   58.6551   65.9092 C   0  0  0  0  0  0  0  0  0  0  0  0
  -46.4576   58.4464   64.9831 C   0  0  0  0  0  0  0  0  0  0  0  0
  -45.6814   57.2048   65.3996 C   0  0  0  0  0  0  0  0  0  0  0  0
  -44.6586   57.5376   66.4744 C   0  0  0  0  0  0  0  0  0  0  0  0
  -43.2368   57.4274   65.9335 C   0  0  0  0  0  0  0  0  0  0  0  0
  -42.5198   58.7518   66.1088 C   0  0  0  0  0  0  0  0  0  0  0  0
  -43.1175   59.7292   66.6275 O   0  0  0  0  0  0  0  0  0  0  0  0
  -41.3262   58.8841   65.7334 O   0  0  0  0  0  0  0  0  0  0  0  0
  -40.8739   58.1606   65.3461 H   0  0  0  0  0  0  0  0  0  0  0  0
 18 19  2  0  0  0
 18 17  1  0  0  0
 18 20  1  0  0  0
 17 16  1  0  0  0
 20 21  1  0  0  0
 16 15  1  0  0  0
 15 14  1  0  0  0
 14 13  1  0  0  0
 13 12  1  0  0  0
 12  1  1  0  0  0
  1  2  1  0  0  0
  2  3  1  0  0  0
  3  4  1  0  0  0
  4  5  1  0  0  0
  5  6  1  0  0  0
  6  7  1  0  0  0
  7  8  1  0  0  0
  8  9  1  0  0  0
  9 10  1  0  0  0
 10 11  1  0  0  0
M  END
> <minimizedAffinity>
-6.87202

> <CNNscore>
0.7387688160

> <CNNaffinity>
6.6240730286

> <CNN_VS>
4.8936586380

> <CNNaffinity_variance>
0.7050822377

$$$$
/media/chris/experiments/cd1a-new-docking/inputs/ligands/4x6d_1_ligand.pdb


 21 20  0  0  0  0  0  0  0  0999 V2000
  -48.3735   58.1423   64.1694 C   0  0  0  0  0  0  0  0  0  0  0  0
  -48.2628   58.0631   65.6718 C   0  0  0  0  0  0  0  0  0  0  0  0
  -46.9539   57.8328   66.2986 C   0  0  0  0  0  0  0  0  0  0  0  0
  -46.1691   58.9911   66.8728 C   0  0  0  0  0  0  0  0  0  0  0  0
  -45.3617   59.6797   65.7730 C   0  0  0  0  0  0  0  0  0  0  0  0
  -44.2190   58.8207   65.2383 C   0  0  0  0  0  0  0  0  0  0  0  0
  -43.3260   58.3033   66.3692 C   0  0  0  0  0  0  0  0  0  0  0  0
  -41.9402   58.9550   66.4467 C   0  0  0  0  0  0  0  0  0  0  0  0
  -41.2302   58.9697   65.0864 C   0  0  0  0  0  0  0  0  0  0  0  0
  -39.7151   59.1478   65.2133 C   0  0  0  0  0  0  0  0  0  0  0  0
  -38.9113   58.0935   64.4426 C   0  0  0  0  0  0  0  0  0  0  0  0
  -49.8168   58.4814   63.8337 C   0  0  0  0  0  0  0  0  0  0  0  0
  -50.0492   58.5386   62.3345 C   0  0  0  0  0  0  0  0  0  0  0  0
  -48.7436   58.3498   61.5679 C   0  0  0  0  0  0  0  0  0  0  0  0
  -49.0012   58.4148   60.0689 C   0  0  0  0  0  0  0  0  0  0  0  0
  -47.8330   57.8308   59.2902 C   0  0  0  0  0  0  0  0  0  0  0  0
  -48.0924   56.3741   58.9200 C   0  0  0  0  0  0  0  0  0  0  0  0
  -47.6517   56.1244   57.4909 C   0  0  0  0  0  0  0  0  0  0  0  0
  -47.7741   54.9801   56.9835 O   0  0  0  0  0  0  0  0  0  0  0  0
  -47.1573   57.0562   56.8050 O   0  0  0  0  0  0  0  0  0  0  0  0
  -47.0629   57.9116   57.1758 H   0  0  0  0  0  0  0  0  0  0  0  0
 18 19  2  0  0  0
 18 17  1  0  0  0
 18 20  1  0  0  0
 17 16  1  0  0  0
 20 21  1  0  0  0
 16 15  1  0  0  0
 15 14  1  0  0  0
 14 13  1  0  0  0
 13 12  1  0  0  0
 12  1  1  0  0  0
  1  2  1  0  0  0
  2  3  1  0  0  0
  3  4  1  0  0  0
  4  5  1  0  0  0
  5  6  1  0  0  0
  6  7  1  0  0  0
  7  8  1  0  0  0
  8  9  1  0  0  0
  9 10  1  0  0  0
 10 11  1  0  0  0
M  END
> <minimizedAffinity>
-6.68848

> <CNNscore>
0.7040929198

> <CNNaffinity>
6.4825372696

> <CNN_VS>
4.5643086433

> <CNNaffinity_variance>
0.7305010557

$$$$
/media/chris/experiments/cd1a-new-docking/inputs/ligands/4x6d_1_ligand.pdb


 21 20  0  0  0  0  0  0  0  0999 V2000
  -41.8182   60.0374   64.5210 C   0  0  0  0  0  0  0  0  0  0  0  0
  -43.2138   59.4760   64.4064 C   0  0  0  0  0  0  0  0  0  0  0  0
  -43.6166   58.3383   65.2444 C   0  0  0  0  0  0  0  0  0  0  0  0
  -44.5300   57.2682   64.6893 C   0  0  0  0  0  0  0  0  0  0  0  0
  -45.8246   57.2060   65.4989 C   0  0  0  0  0  0  0  0  0  0  0  0
  -46.6633   58.4766   65.3907 C   0  0  0  0  0  0  0  0  0  0  0  0
  -47.6372   58.4104   64.2113 C   0  0  0  0  0  0  0  0  0  0  0  0
  -49.1083   58.6448   64.5753 C   0  0  0  0  0  0  0  0  0  0  0  0
  -50.0453   58.4010   63.3849 C   0  0  0  0  0  0  0  0  0  0  0  0
  -50.9878   59.5790   63.1247 C   0  0  0  0  0  0  0  0  0  0  0  0
  -51.1755   60.4896   64.3441 C   0  0  0  0  0  0  0  0  0  0  0  0
  -41.0435   59.1466   65.4788 C   0  0  0  0  0  0  0  0  0  0  0  0
  -39.5594   59.1304   65.1591 C   0  0  0  0  0  0  0  0  0  0  0  0
  -39.1995   57.9379   64.2782 C   0  0  0  0  0  0  0  0  0  0  0  0
  -37.7886   58.0979   63.7293 C   0  0  0  0  0  0  0  0  0  0  0  0
  -36.8169   58.4886   64.8316 C   0  0  0  0  0  0  0  0  0  0  0  0
  -35.7359   59.4268   64.3047 C   0  0  0  0  0  0  0  0  0  0  0  0
  -36.1903   60.8654   64.4562 C   0  0  0  0  0  0  0  0  0  0  0  0
  -36.7960   61.4383   63.5146 O   0  0  0  0  0  0  0  0  0  0  0  0
  -35.9615   61.4966   65.5203 O   0  0  0  0  0  0  0  0  0  0  0  0
  -35.5109   61.0767   66.2264 H   0  0  0  0  0  0  0  0  0  0  0  0
 18 19  2  0  0  0
 18 17  1  0  0  0
 18 20  1  0  0  0
 17 16  1  0  0  0
 20 21  1  0  0  0
 16 15  1  0  0  0
 15 14  1  0  0  0
 14 13  1  0  0  0
 13 12  1  0  0  0
 12  1  1  0  0  0
  1  2  1  0  0  0
  2  3  1  0  0  0
  3  4  1  0  0  0
  4  5  1  0  0  0
  5  6  1  0  0  0
  6  7  1  0  0  0
  7  8  1  0  0  0
  8  9  1  0  0  0
  9 10  1  0  0  0
 10 11  1  0  0  0
M  END
> <minimizedAffinity>
-6.32378

> <CNNscore>
0.6812544465

> <CNNaffinity>
6.2354903221

> <CNN_VS>
4.2479553223

> <CNNaffinity_variance>
0.1705135703

$$$$
/media/chris/experiments/cd1a-new-docking/inputs/ligands/4x6d_1_ligand.pdb


 21 20  0  0  0  0  0  0  0  0999 V2000
  -46.2293   60.4306   65.1411 C   0  0  0  0  0  0  0  0  0  0  0  0
  -47.7307   60.5747   65.1715 C   0  0  0  0  0  0  0  0  0  0  0  0
  -48.5267   59.7531   66.0937 C   0  0  0  0  0  0  0  0  0  0  0  0
  -49.5181   58.7459   65.5553 C   0  0  0  0  0  0  0  0  0  0  0  0
  -49.2376   58.4645   64.0796 C   0  0  0  0  0  0  0  0  0  0  0  0
  -50.4451   58.7131   63.1798 C   0  0  0  0  0  0  0  0  0  0  0  0
  -50.3848   60.0955   62.5247 C   0  0  0  0  0  0  0  0  0  0  0  0
  -49.5057   60.1778   61.2710 C   0  0  0  0  0  0  0  0  0  0  0  0
  -49.5058   58.8651   60.4764 C   0  0  0  0  0  0  0  0  0  0  0  0
  -48.2564   58.7012   59.6072 C   0  0  0  0  0  0  0  0  0  0  0  0
  -47.7135   57.2672   59.5854 C   0  0  0  0  0  0  0  0  0  0  0  0
  -45.8806   59.1227   65.8331 C   0  0  0  0  0  0  0  0  0  0  0  0
  -45.3991   58.0734   64.8470 C   0  0  0  0  0  0  0  0  0  0  0  0
  -43.8751   58.0362   64.7839 C   0  0  0  0  0  0  0  0  0  0  0  0
  -43.2889   58.1598   66.1834 C   0  0  0  0  0  0  0  0  0  0  0  0
  -41.9503   58.8804   66.1509 C   0  0  0  0  0  0  0  0  0  0  0  0
  -42.0905   60.3226   66.6271 C   0  0  0  0  0  0  0  0  0  0  0  0
  -41.3167   61.2427   65.7033 C   0  0  0  0  0  0  0  0  0  0  0  0
  -40.3648   61.9319   66.1512 O   0  0  0  0  0  0  0  0  0  0  0  0
  -41.6231   61.3271   64.4858 O   0  0  0  0  0  0  0  0  0  0  0  0
  -42.3310   60.8168   64.1444 H   0  0  0  0  0  0  0  0  0  0  0  0
 18 19  2  0  0  0
 18 17  1  0  0  0
 18 20  1  0  0  0
 17 16  1  0  0  0
 20 21  1  0  0  0
 16 15  1  0  0  0
 15 14  1  0  0  0
 14 13  1  0  0  0
 13 12  1  0  0  0
 12  1  1  0  0  0
  1  2  1  0  0  0
  2  3  1  0  0  0
  3  4  1  0  0  0
  4  5  1  0  0  0
  5  6  1  0  0  0
  6  7  1  0  0  0
  7  8  1  0  0  0
  8  9  1  0  0  0
  9 10  1  0  0  0
 10 11  1  0  0  0
M  END
> <minimizedAffinity>
-6.79912

> <CNNscore>
0.6704106927

> <CNNaffinity>
6.4033303261

> <CNN_VS>
4.2928609848

> <CNNaffinity_variance>
0.3855096102

$$$$
/media/chris/experiments/cd1a-new-docking/inputs/ligands/4x6d_1_ligand.pdb


 21 20  0  0  0  0  0  0  0  0999 V2000
  -42.8190   60.1827   67.1273 C   0  0  0  0  0  0  0  0  0  0  0  0
  -43.7056   59.2968   66.2875 C   0  0  0  0  0  0  0  0  0  0  0  0
  -45.0779   59.7189   65.9755 C   0  0  0  0  0  0  0  0  0  0  0  0
  -46.2308   59.2664   66.8437 C   0  0  0  0  0  0  0  0  0  0  0  0
  -47.5595   59.5201   66.1327 C   0  0  0  0  0  0  0  0  0  0  0  0
  -48.2737   58.2369   65.7169 C   0  0  0  0  0  0  0  0  0  0  0  0
  -49.7747   58.4655   65.5205 C   0  0  0  0  0  0  0  0  0  0  0  0
  -50.2172   59.9326   65.5794 C   0  0  0  0  0  0  0  0  0  0  0  0
  -51.0989   60.3200   64.3848 C   0  0  0  0  0  0  0  0  0  0  0  0
  -50.8799   59.4133   63.1709 C   0  0  0  0  0  0  0  0  0  0  0  0
  -49.9807   60.0389   62.0978 C   0  0  0  0  0  0  0  0  0  0  0  0
  -41.4740   60.2815   66.4257 C   0  0  0  0  0  0  0  0  0  0  0  0
  -41.4567   59.4979   65.1254 C   0  0  0  0  0  0  0  0  0  0  0  0
  -40.0758   59.5371   64.4779 C   0  0  0  0  0  0  0  0  0  0  0  0
  -39.3746   58.1977   64.6559 C   0  0  0  0  0  0  0  0  0  0  0  0
  -37.9928   58.2182   64.0215 C   0  0  0  0  0  0  0  0  0  0  0  0
  -38.0792   58.0362   62.5096 C   0  0  0  0  0  0  0  0  0  0  0  0
  -36.7865   57.4354   61.9931 C   0  0  0  0  0  0  0  0  0  0  0  0
  -36.7907   56.7272   60.9539 O   0  0  0  0  0  0  0  0  0  0  0  0
  -35.7034   57.6364   62.6011 O   0  0  0  0  0  0  0  0  0  0  0  0
  -35.6919   58.1631   63.3760 H   0  0  0  0  0  0  0  0  0  0  0  0
 18 19  2  0  0  0
 18 17  1  0  0  0
 18 20  1  0  0  0
 17 16  1  0  0  0
 20 21  1  0  0  0
 16 15  1  0  0  0
 15 14  1  0  0  0
 14 13  1  0  0  0
 13 12  1  0  0  0
 12  1  1  0  0  0
  1  2  1  0  0  0
  2  3  1  0  0  0
  3  4  1  0  0  0
  4  5  1  0  0  0
  5  6  1  0  0  0
  6  7  1  0  0  0
  7  8  1  0  0  0
  8  9  1  0  0  0
  9 10  1  0  0  0
 10 11  1  0  0  0
M  END
> <minimizedAffinity>
-6.55098

> <CNNscore>
0.6554692388

> <CNNaffinity>
6.1881814003

> <CNN_VS>
4.0561623573

> <CNNaffinity_variance>
0.3904677033

$$$$
/media/chris/experiments/cd1a-new-docking/inputs/ligands/4x6d_1_ligand.pdb


 21 20  0  0  0  0  0  0  0  0999 V2000
  -43.9018   59.5086   65.0945 C   0  0  0  0  0  0  0  0  0  0  0  0
  -43.7078   58.0457   64.7812 C   0  0  0  0  0  0  0  0  0  0  0  0
  -44.6927   57.0600   65.2474 C   0  0  0  0  0  0  0  0  0  0  0  0
  -45.7563   57.4586   66.2461 C   0  0  0  0  0  0  0  0  0  0  0  0
  -47.0493   56.6898   65.9768 C   0  0  0  0  0  0  0  0  0  0  0  0
  -48.1654   57.5675   65.4168 C   0  0  0  0  0  0  0  0  0  0  0  0
  -47.6192   58.6348   64.4647 C   0  0  0  0  0  0  0  0  0  0  0  0
  -48.6772   59.3307   63.6001 C   0  0  0  0  0  0  0  0  0  0  0  0
  -50.0386   58.6265   63.6722 C   0  0  0  0  0  0  0  0  0  0  0  0
  -50.5811   58.2476   62.2917 C   0  0  0  0  0  0  0  0  0  0  0  0
  -49.5545   58.4199   61.1657 C   0  0  0  0  0  0  0  0  0  0  0  0
  -42.9470   59.8660   66.2222 C   0  0  0  0  0  0  0  0  0  0  0  0
  -41.7352   58.9518   66.2467 C   0  0  0  0  0  0  0  0  0  0  0  0
  -40.4711   59.7031   65.8400 C   0  0  0  0  0  0  0  0  0  0  0  0
  -40.0357   59.2802   64.4439 C   0  0  0  0  0  0  0  0  0  0  0  0
  -38.9869   58.1812   64.5105 C   0  0  0  0  0  0  0  0  0  0  0  0
  -37.7441   58.6519   65.2589 C   0  0  0  0  0  0  0  0  0  0  0  0
  -37.0348   59.7200   64.4496 C   0  0  0  0  0  0  0  0  0  0  0  0
  -36.8950   60.8785   64.9186 O   0  0  0  0  0  0  0  0  0  0  0  0
  -36.5860   59.4575   63.3038 O   0  0  0  0  0  0  0  0  0  0  0  0
  -36.6860   58.5968   62.9473 H   0  0  0  0  0  0  0  0  0  0  0  0
 18 19  2  0  0  0
 18 17  1  0  0  0
 18 20  1  0  0  0
 17 16  1  0  0  0
 20 21  1  0  0  0
 16 15  1  0  0  0
 15 14  1  0  0  0
 14 13  1  0  0  0
 13 12  1  0  0  0
 12  1  1  0  0  0
  1  2  1  0  0  0
  2  3  1  0  0  0
  3  4  1  0  0  0
  4  5  1  0  0  0
  5  6  1  0  0  0
  6  7  1  0  0  0
  7  8  1  0  0  0
  8  9  1  0  0  0
  9 10  1  0  0  0
 10 11  1  0  0  0
M  END
> <minimizedAffinity>
-6.20487

> <CNNscore>
0.6333473921

> <CNNaffinity>
6.3936233521

> <CNN_VS>
4.0493845940

> <CNNaffinity_variance>
0.3176874816

$$$$
