/media/chris/experiments/cd1a-new-docking/inputs/ligands/4x6d_1_ligand.pdb


 21 20  0  0  0  0  0  0  0  0999 V2000
  -47.7853   57.2122   65.4170 C   0  0  0  0  0  0  0  0  0  0  0  0
  -47.8013   58.2742   64.3457 C   0  0  0  0  0  0  0  0  0  0  0  0
  -48.9102   59.2363   64.2848 C   0  0  0  0  0  0  0  0  0  0  0  0
  -50.2536   58.8173   63.7306 C   0  0  0  0  0  0  0  0  0  0  0  0
  -50.2412   58.8878   62.2041 C   0  0  0  0  0  0  0  0  0  0  0  0
  -50.8780   57.6695   61.5407 C   0  0  0  0  0  0  0  0  0  0  0  0
  -49.9674   57.0739   60.4636 C   0  0  0  0  0  0  0  0  0  0  0  0
  -49.0746   58.0891   59.7398 C   0  0  0  0  0  0  0  0  0  0  0  0
  -47.7378   57.4761   59.3023 C   0  0  0  0  0  0  0  0  0  0  0  0
  -47.2093   58.0811   57.9991 C   0  0  0  0  0  0  0  0  0  0  0  0
  -47.4256   57.1796   56.7774 C   0  0  0  0  0  0  0  0  0  0  0  0
  -46.6961   57.5811   66.4113 C   0  0  0  0  0  0  0  0  0  0  0  0
  -45.3085   57.3731   65.8314 C   0  0  0  0  0  0  0  0  0  0  0  0
  -44.4374   58.6095   66.0324 C   0  0  0  0  0  0  0  0  0  0  0  0
  -43.8351   59.0485   64.7049 C   0  0  0  0  0  0  0  0  0  0  0  0
  -42.9879   60.2992   64.8788 C   0  0  0  0  0  0  0  0  0  0  0  0
  -42.5168   60.8359   63.5309 C   0  0  0  0  0  0  0  0  0  0  0  0
  -41.0295   61.1252   63.5884 C   0  0  0  0  0  0  0  0  0  0  0  0
  -40.2441   60.5532   62.7900 O   0  0  0  0  0  0  0  0  0  0  0  0
  -40.5706   61.9340   64.4359 O   0  0  0  0  0  0  0  0  0  0  0  0
  -41.1494   62.3642   65.0342 H   0  0  0  0  0  0  0  0  0  0  0  0
 18 19  2  0  0  0
 18 17  1  0  0  0
 18 20  1  0  0  0
 17 16  1  0  0  0
 20 21  1  0  0  0
 16 15  1  0  0  0
 15 14  1  0  0  0
 14 13  1  0  0  0
 13 12  1  0  0  0
 12  1  1  0  0  0
  1  2  1  0  0  0
  2  3  1  0  0  0
  3  4  1  0  0  0
  4  5  1  0  0  0
  5  6  1  0  0  0
  6  7  1  0  0  0
  7  8  1  0  0  0
  8  9  1  0  0  0
  9 10  1  0  0  0
 10 11  1  0  0  0
M  END
> <minimizedAffinity>
-6.70894

> <CNNscore>
0.9194259644

> <CNNaffinity>
6.9930648804

> <CNN_VS>
6.4296054840

> <CNNaffinity_variance>
0.5428005457

$$$$
/media/chris/experiments/cd1a-new-docking/inputs/ligands/4x6d_1_ligand.pdb


 21 20  0  0  0  0  0  0  0  0999 V2000
  -47.0469   58.4848   64.6602 C   0  0  0  0  0  0  0  0  0  0  0  0
  -47.0031   59.9413   65.0505 C   0  0  0  0  0  0  0  0  0  0  0  0
  -48.2330   60.7448   65.0210 C   0  0  0  0  0  0  0  0  0  0  0  0
  -49.0707   60.8106   63.7636 C   0  0  0  0  0  0  0  0  0  0  0  0
  -50.5374   60.5320   64.0901 C   0  0  0  0  0  0  0  0  0  0  0  0
  -51.1776   59.5087   63.1558 C   0  0  0  0  0  0  0  0  0  0  0  0
  -50.1420   58.8663   62.2290 C   0  0  0  0  0  0  0  0  0  0  0  0
  -50.7044   57.8183   61.2611 C   0  0  0  0  0  0  0  0  0  0  0  0
  -49.9837   57.8354   59.9065 C   0  0  0  0  0  0  0  0  0  0  0  0
  -48.5573   58.3827   60.0038 C   0  0  0  0  0  0  0  0  0  0  0  0
  -47.6478   57.9196   58.8592 C   0  0  0  0  0  0  0  0  0  0  0  0
  -45.8520   57.8015   65.3053 C   0  0  0  0  0  0  0  0  0  0  0  0
  -44.5387   58.4112   64.8484 C   0  0  0  0  0  0  0  0  0  0  0  0
  -43.3499   57.6001   65.3553 C   0  0  0  0  0  0  0  0  0  0  0  0
  -42.6633   58.3340   66.4988 C   0  0  0  0  0  0  0  0  0  0  0  0
  -42.0476   59.6380   66.0166 C   0  0  0  0  0  0  0  0  0  0  0  0
  -40.5595   59.4695   65.7273 C   0  0  0  0  0  0  0  0  0  0  0  0
  -39.8525   60.8001   65.8977 C   0  0  0  0  0  0  0  0  0  0  0  0
  -40.5172   61.8434   66.1242 O   0  0  0  0  0  0  0  0  0  0  0  0
  -38.5995   60.8710   65.8092 O   0  0  0  0  0  0  0  0  0  0  0  0
  -38.0972   60.0982   65.6405 H   0  0  0  0  0  0  0  0  0  0  0  0
 18 19  2  0  0  0
 18 17  1  0  0  0
 18 20  1  0  0  0
 17 16  1  0  0  0
 20 21  1  0  0  0
 16 15  1  0  0  0
 15 14  1  0  0  0
 14 13  1  0  0  0
 13 12  1  0  0  0
 12  1  1  0  0  0
  1  2  1  0  0  0
  2  3  1  0  0  0
  3  4  1  0  0  0
  4  5  1  0  0  0
  5  6  1  0  0  0
  6  7  1  0  0  0
  7  8  1  0  0  0
  8  9  1  0  0  0
  9 10  1  0  0  0
 10 11  1  0  0  0
M  END
> <minimizedAffinity>
-6.97449

> <CNNscore>
0.8960782886

> <CNNaffinity>
6.8349962234

> <CNN_VS>
6.1246914864

> <CNNaffinity_variance>
0.6079620719

$$$$
/media/chris/experiments/cd1a-new-docking/inputs/ligands/4x6d_1_ligand.pdb


 21 20  0  0  0  0  0  0  0  0999 V2000
  -47.3105   58.5602   65.1870 C   0  0  0  0  0  0  0  0  0  0  0  0
  -48.7826   58.3026   64.9811 C   0  0  0  0  0  0  0  0  0  0  0  0
  -49.7691   59.2980   65.4229 C   0  0  0  0  0  0  0  0  0  0  0  0
  -50.7466   59.8935   64.4343 C   0  0  0  0  0  0  0  0  0  0  0  0
  -50.4313   59.4070   63.0204 C   0  0  0  0  0  0  0  0  0  0  0  0
  -49.7052   60.4491   62.1738 C   0  0  0  0  0  0  0  0  0  0  0  0
  -49.2594   59.8708   60.8282 C   0  0  0  0  0  0  0  0  0  0  0  0
  -48.7927   58.4108   60.8761 C   0  0  0  0  0  0  0  0  0  0  0  0
  -48.7159   57.7814   59.4788 C   0  0  0  0  0  0  0  0  0  0  0  0
  -47.6024   58.3859   58.6195 C   0  0  0  0  0  0  0  0  0  0  0  0
  -47.0912   57.4367   57.5289 C   0  0  0  0  0  0  0  0  0  0  0  0
  -47.1203   60.0641   65.3011 C   0  0  0  0  0  0  0  0  0  0  0  0
  -45.6602   60.4598   65.1715 C   0  0  0  0  0  0  0  0  0  0  0  0
  -44.7604   59.2291   65.1089 C   0  0  0  0  0  0  0  0  0  0  0  0
  -43.3017   59.6508   64.9991 C   0  0  0  0  0  0  0  0  0  0  0  0
  -42.8010   60.2259   66.3147 C   0  0  0  0  0  0  0  0  0  0  0  0
  -41.3085   59.9680   66.4949 C   0  0  0  0  0  0  0  0  0  0  0  0
  -40.5155   61.0906   65.8546 C   0  0  0  0  0  0  0  0  0  0  0  0
  -40.7242   62.2836   66.1934 O   0  0  0  0  0  0  0  0  0  0  0  0
  -39.6484   60.8383   64.9785 O   0  0  0  0  0  0  0  0  0  0  0  0
  -39.4871   59.9520   64.7206 H   0  0  0  0  0  0  0  0  0  0  0  0
 18 19  2  0  0  0
 18 17  1  0  0  0
 18 20  1  0  0  0
 17 16  1  0  0  0
 20 21  1  0  0  0
 16 15  1  0  0  0
 15 14  1  0  0  0
 14 13  1  0  0  0
 13 12  1  0  0  0
 12  1  1  0  0  0
  1  2  1  0  0  0
  2  3  1  0  0  0
  3  4  1  0  0  0
  4  5  1  0  0  0
  5  6  1  0  0  0
  6  7  1  0  0  0
  7  8  1  0  0  0
  8  9  1  0  0  0
  9 10  1  0  0  0
 10 11  1  0  0  0
M  END
> <minimizedAffinity>
-6.91901

> <CNNscore>
0.8938943148

> <CNNaffinity>
6.8608574867

> <CNN_VS>
6.1328816414

> <CNNaffinity_variance>
0.6703387499

$$$$
/media/chris/experiments/cd1a-new-docking/inputs/ligands/4x6d_1_ligand.pdb


 21 20  0  0  0  0  0  0  0  0999 V2000
  -46.7586   57.0897   65.6670 C   0  0  0  0  0  0  0  0  0  0  0  0
  -47.3912   58.2188   64.8919 C   0  0  0  0  0  0  0  0  0  0  0  0
  -47.4882   59.5559   65.4933 C   0  0  0  0  0  0  0  0  0  0  0  0
  -48.7691   59.9989   66.1646 C   0  0  0  0  0  0  0  0  0  0  0  0
  -49.9652   59.2678   65.5562 C   0  0  0  0  0  0  0  0  0  0  0  0
  -50.8767   60.1809   64.7405 C   0  0  0  0  0  0  0  0  0  0  0  0
  -50.7710   59.8893   63.2413 C   0  0  0  0  0  0  0  0  0  0  0  0
  -49.5249   60.4654   62.5580 C   0  0  0  0  0  0  0  0  0  0  0  0
  -49.4085   60.0191   61.0946 C   0  0  0  0  0  0  0  0  0  0  0  0
  -49.1772   58.5123   60.9536 C   0  0  0  0  0  0  0  0  0  0  0  0
  -50.1595   57.8326   59.9920 C   0  0  0  0  0  0  0  0  0  0  0  0
  -45.6118   57.6750   66.4752 C   0  0  0  0  0  0  0  0  0  0  0  0
  -44.2651   57.3811   65.8386 C   0  0  0  0  0  0  0  0  0  0  0  0
  -43.4480   58.6580   65.6660 C   0  0  0  0  0  0  0  0  0  0  0  0
  -43.6180   59.5583   66.8818 C   0  0  0  0  0  0  0  0  0  0  0  0
  -42.3132   60.2585   67.2272 C   0  0  0  0  0  0  0  0  0  0  0  0
  -41.2214   59.9152   66.2188 C   0  0  0  0  0  0  0  0  0  0  0  0
  -40.3239   61.1192   66.0086 C   0  0  0  0  0  0  0  0  0  0  0  0
  -39.0762   61.0021   66.1132 O   0  0  0  0  0  0  0  0  0  0  0  0
  -40.8197   62.2423   65.7332 O   0  0  0  0  0  0  0  0  0  0  0  0
  -41.7484   62.3377   65.6536 H   0  0  0  0  0  0  0  0  0  0  0  0
 18 19  2  0  0  0
 18 17  1  0  0  0
 18 20  1  0  0  0
 17 16  1  0  0  0
 20 21  1  0  0  0
 16 15  1  0  0  0
 15 14  1  0  0  0
 14 13  1  0  0  0
 13 12  1  0  0  0
 12  1  1  0  0  0
  1  2  1  0  0  0
  2  3  1  0  0  0
  3  4  1  0  0  0
  4  5  1  0  0  0
  5  6  1  0  0  0
  6  7  1  0  0  0
  7  8  1  0  0  0
  8  9  1  0  0  0
  9 10  1  0  0  0
 10 11  1  0  0  0
M  END
> <minimizedAffinity>
-6.80317

> <CNNscore>
0.7967886925

> <CNNaffinity>
6.5481996536

> <CNN_VS>
5.2175312042

> <CNNaffinity_variance>
0.5507179499

$$$$
/media/chris/experiments/cd1a-new-docking/inputs/ligands/4x6d_1_ligand.pdb


 21 20  0  0  0  0  0  0  0  0999 V2000
  -45.2711   60.0226   65.3961 C   0  0  0  0  0  0  0  0  0  0  0  0
  -46.7398   59.6792   65.3708 C   0  0  0  0  0  0  0  0  0  0  0  0
  -47.2028   58.4965   64.6320 C   0  0  0  0  0  0  0  0  0  0  0  0
  -48.5824   57.9310   64.8853 C   0  0  0  0  0  0  0  0  0  0  0  0
  -49.6468   58.9956   64.6227 C   0  0  0  0  0  0  0  0  0  0  0  0
  -50.4206   58.7656   63.3273 C   0  0  0  0  0  0  0  0  0  0  0  0
  -50.2798   59.9509   62.3686 C   0  0  0  0  0  0  0  0  0  0  0  0
  -49.3408   59.7116   61.1801 C   0  0  0  0  0  0  0  0  0  0  0  0
  -48.7578   58.2922   61.1794 C   0  0  0  0  0  0  0  0  0  0  0  0
  -48.1601   57.9002   59.8256 C   0  0  0  0  0  0  0  0  0  0  0  0
  -49.2056   57.4065   58.8182 C   0  0  0  0  0  0  0  0  0  0  0  0
  -44.7069   59.5244   66.7170 C   0  0  0  0  0  0  0  0  0  0  0  0
  -43.1920   59.6182   66.7549 C   0  0  0  0  0  0  0  0  0  0  0  0
  -42.5493   58.2782   66.4092 C   0  0  0  0  0  0  0  0  0  0  0  0
  -41.4219   58.4802   65.4062 C   0  0  0  0  0  0  0  0  0  0  0  0
  -40.5129   59.6223   65.8321 C   0  0  0  0  0  0  0  0  0  0  0  0
  -39.4038   59.8525   64.8105 C   0  0  0  0  0  0  0  0  0  0  0  0
  -38.0874   60.0780   65.5284 C   0  0  0  0  0  0  0  0  0  0  0  0
  -37.9690   61.0258   66.3464 O   0  0  0  0  0  0  0  0  0  0  0  0
  -37.1049   59.3235   65.3083 O   0  0  0  0  0  0  0  0  0  0  0  0
  -37.1852   58.6151   64.7001 H   0  0  0  0  0  0  0  0  0  0  0  0
 18 19  2  0  0  0
 18 17  1  0  0  0
 18 20  1  0  0  0
 17 16  1  0  0  0
 20 21  1  0  0  0
 16 15  1  0  0  0
 15 14  1  0  0  0
 14 13  1  0  0  0
 13 12  1  0  0  0
 12  1  1  0  0  0
  1  2  1  0  0  0
  2  3  1  0  0  0
  3  4  1  0  0  0
  4  5  1  0  0  0
  5  6  1  0  0  0
  6  7  1  0  0  0
  7  8  1  0  0  0
  8  9  1  0  0  0
  9 10  1  0  0  0
 10 11  1  0  0  0
M  END
> <minimizedAffinity>
-6.53658

> <CNNscore>
0.7744679451

> <CNNaffinity>
6.5452513695

> <CNN_VS>
5.0690875053

> <CNNaffinity_variance>
0.3207979798

$$$$
/media/chris/experiments/cd1a-new-docking/inputs/ligands/4x6d_1_ligand.pdb


 21 20  0  0  0  0  0  0  0  0999 V2000
  -46.7045   60.0976   65.0699 C   0  0  0  0  0  0  0  0  0  0  0  0
  -47.9672   60.9182   65.1590 C   0  0  0  0  0  0  0  0  0  0  0  0
  -48.9556   60.8617   64.0732 C   0  0  0  0  0  0  0  0  0  0  0  0
  -50.3905   60.4847   64.3672 C   0  0  0  0  0  0  0  0  0  0  0  0
  -50.9515   59.6192   63.2396 C   0  0  0  0  0  0  0  0  0  0  0  0
  -49.9329   58.6324   62.6752 C   0  0  0  0  0  0  0  0  0  0  0  0
  -49.8344   58.7344   61.1507 C   0  0  0  0  0  0  0  0  0  0  0  0
  -50.0834   57.4213   60.3987 C   0  0  0  0  0  0  0  0  0  0  0  0
  -49.3229   57.3634   59.0673 C   0  0  0  0  0  0  0  0  0  0  0  0
  -47.8444   57.7321   59.2155 C   0  0  0  0  0  0  0  0  0  0  0  0
  -47.1689   58.0869   57.8853 C   0  0  0  0  0  0  0  0  0  0  0  0
  -47.1008   58.6340   65.1792 C   0  0  0  0  0  0  0  0  0  0  0  0
  -45.9118   57.7111   64.9808 C   0  0  0  0  0  0  0  0  0  0  0  0
  -44.6139   58.5042   64.8607 C   0  0  0  0  0  0  0  0  0  0  0  0
  -43.4539   57.7023   65.4344 C   0  0  0  0  0  0  0  0  0  0  0  0
  -42.1816   58.5342   65.4686 C   0  0  0  0  0  0  0  0  0  0  0  0
  -42.4912   60.0192   65.3094 C   0  0  0  0  0  0  0  0  0  0  0  0
  -41.9106   60.7899   66.4791 C   0  0  0  0  0  0  0  0  0  0  0  0
  -40.9496   61.5808   66.2991 O   0  0  0  0  0  0  0  0  0  0  0  0
  -42.3817   60.6409   67.6363 O   0  0  0  0  0  0  0  0  0  0  0  0
  -43.0977   60.0534   67.7785 H   0  0  0  0  0  0  0  0  0  0  0  0
 18 19  2  0  0  0
 18 17  1  0  0  0
 18 20  1  0  0  0
 17 16  1  0  0  0
 20 21  1  0  0  0
 16 15  1  0  0  0
 15 14  1  0  0  0
 14 13  1  0  0  0
 13 12  1  0  0  0
 12  1  1  0  0  0
  1  2  1  0  0  0
  2  3  1  0  0  0
  3  4  1  0  0  0
  4  5  1  0  0  0
  5  6  1  0  0  0
  6  7  1  0  0  0
  7  8  1  0  0  0
  8  9  1  0  0  0
  9 10  1  0  0  0
 10 11  1  0  0  0
M  END
> <minimizedAffinity>
-6.80469

> <CNNscore>
0.7647702098

> <CNNaffinity>
6.6083130836

> <CNN_VS>
5.0538411140

> <CNNaffinity_variance>
0.3874520957

$$$$
/media/chris/experiments/cd1a-new-docking/inputs/ligands/4x6d_1_ligand.pdb


 21 20  0  0  0  0  0  0  0  0999 V2000
  -48.0646   61.0673   64.6822 C   0  0  0  0  0  0  0  0  0  0  0  0
  -49.1362   60.8631   63.6402 C   0  0  0  0  0  0  0  0  0  0  0  0
  -50.3836   60.1738   63.9977 C   0  0  0  0  0  0  0  0  0  0  0  0
  -51.1524   59.3974   62.9520 C   0  0  0  0  0  0  0  0  0  0  0  0
  -50.2549   58.3379   62.3139 C   0  0  0  0  0  0  0  0  0  0  0  0
  -50.9326   57.5837   61.1729 C   0  0  0  0  0  0  0  0  0  0  0  0
  -50.2767   57.8936   59.8246 C   0  0  0  0  0  0  0  0  0  0  0  0
  -49.1243   56.9589   59.4376 C   0  0  0  0  0  0  0  0  0  0  0  0
  -47.7641   57.6676   59.4817 C   0  0  0  0  0  0  0  0  0  0  0  0
  -47.2895   58.1208   58.0986 C   0  0  0  0  0  0  0  0  0  0  0  0
  -47.6396   57.1316   56.9802 C   0  0  0  0  0  0  0  0  0  0  0  0
  -48.4090   60.1860   65.8721 C   0  0  0  0  0  0  0  0  0  0  0  0
  -47.2281   59.3358   66.3053 C   0  0  0  0  0  0  0  0  0  0  0  0
  -46.4900   58.7640   65.0985 C   0  0  0  0  0  0  0  0  0  0  0  0
  -44.9880   58.7803   65.3461 C   0  0  0  0  0  0  0  0  0  0  0  0
  -44.4600   60.2054   65.3952 C   0  0  0  0  0  0  0  0  0  0  0  0
  -42.9567   60.2438   65.1400 C   0  0  0  0  0  0  0  0  0  0  0  0
  -42.2128   60.1620   66.4588 C   0  0  0  0  0  0  0  0  0  0  0  0
  -41.0721   59.6349   66.5083 O   0  0  0  0  0  0  0  0  0  0  0  0
  -42.7318   60.6153   67.5115 O   0  0  0  0  0  0  0  0  0  0  0  0
  -43.5815   61.0094   67.4829 H   0  0  0  0  0  0  0  0  0  0  0  0
 18 19  2  0  0  0
 18 17  1  0  0  0
 18 20  1  0  0  0
 17 16  1  0  0  0
 20 21  1  0  0  0
 16 15  1  0  0  0
 15 14  1  0  0  0
 14 13  1  0  0  0
 13 12  1  0  0  0
 12  1  1  0  0  0
  1  2  1  0  0  0
  2  3  1  0  0  0
  3  4  1  0  0  0
  4  5  1  0  0  0
  5  6  1  0  0  0
  6  7  1  0  0  0
  7  8  1  0  0  0
  8  9  1  0  0  0
  9 10  1  0  0  0
 10 11  1  0  0  0
M  END
> <minimizedAffinity>
-7.08527

> <CNNscore>
0.7004207373

> <CNNaffinity>
6.5540666580

> <CNN_VS>
4.5906043053

> <CNNaffinity_variance>
0.4107168317

$$$$
/media/chris/experiments/cd1a-new-docking/inputs/ligands/4x6d_1_ligand.pdb


 21 20  0  0  0  0  0  0  0  0999 V2000
  -46.7200   60.6526   65.0121 C   0  0  0  0  0  0  0  0  0  0  0  0
  -48.2059   60.8972   65.1022 C   0  0  0  0  0  0  0  0  0  0  0  0
  -49.0315   60.0704   65.9931 C   0  0  0  0  0  0  0  0  0  0  0  0
  -50.3296   59.4750   65.4951 C   0  0  0  0  0  0  0  0  0  0  0  0
  -50.9836   60.4087   64.4774 C   0  0  0  0  0  0  0  0  0  0  0  0
  -51.1720   59.7659   63.1058 C   0  0  0  0  0  0  0  0  0  0  0  0
  -50.3881   58.4565   62.9845 C   0  0  0  0  0  0  0  0  0  0  0  0
  -49.0037   58.5906   62.3388 C   0  0  0  0  0  0  0  0  0  0  0  0
  -49.0717   59.2497   60.9549 C   0  0  0  0  0  0  0  0  0  0  0  0
  -48.6637   58.2982   59.8272 C   0  0  0  0  0  0  0  0  0  0  0  0
  -49.8516   57.5761   59.1798 C   0  0  0  0  0  0  0  0  0  0  0  0
  -46.4914   59.1582   65.1718 C   0  0  0  0  0  0  0  0  0  0  0  0
  -45.0163   58.8034   65.1125 C   0  0  0  0  0  0  0  0  0  0  0  0
  -44.2899   59.2589   66.3746 C   0  0  0  0  0  0  0  0  0  0  0  0
  -42.9496   59.8832   66.0122 C   0  0  0  0  0  0  0  0  0  0  0  0
  -42.7545   59.9161   64.5045 C   0  0  0  0  0  0  0  0  0  0  0  0
  -42.2969   61.2948   64.0394 C   0  0  0  0  0  0  0  0  0  0  0  0
  -40.9416   61.6125   64.6406 C   0  0  0  0  0  0  0  0  0  0  0  0
  -39.8899   61.2637   64.0459 O   0  0  0  0  0  0  0  0  0  0  0  0
  -40.8592   62.2217   65.7384 O   0  0  0  0  0  0  0  0  0  0  0  0
  -41.6383   62.4849   66.1877 H   0  0  0  0  0  0  0  0  0  0  0  0
 18 19  2  0  0  0
 18 17  1  0  0  0
 18 20  1  0  0  0
 17 16  1  0  0  0
 20 21  1  0  0  0
 16 15  1  0  0  0
 15 14  1  0  0  0
 14 13  1  0  0  0
 13 12  1  0  0  0
 12  1  1  0  0  0
  1  2  1  0  0  0
  2  3  1  0  0  0
  3  4  1  0  0  0
  4  5  1  0  0  0
  5  6  1  0  0  0
  6  7  1  0  0  0
  7  8  1  0  0  0
  8  9  1  0  0  0
  9 10  1  0  0  0
 10 11  1  0  0  0
M  END
> <minimizedAffinity>
-6.90209

> <CNNscore>
0.6779956818

> <CNNaffinity>
6.3866004944

> <CNN_VS>
4.3300876617

> <CNNaffinity_variance>
0.3463469744

$$$$
/media/chris/experiments/cd1a-new-docking/inputs/ligands/4x6d_1_ligand.pdb


 21 20  0  0  0  0  0  0  0  0999 V2000
  -50.4275   60.1327   63.8048 C   0  0  0  0  0  0  0  0  0  0  0  0
  -48.9313   60.2676   63.6668 C   0  0  0  0  0  0  0  0  0  0  0  0
  -48.1198   60.6483   64.8310 C   0  0  0  0  0  0  0  0  0  0  0  0
  -47.8652   59.6533   65.9412 C   0  0  0  0  0  0  0  0  0  0  0  0
  -47.2640   58.3687   65.3724 C   0  0  0  0  0  0  0  0  0  0  0  0
  -46.1793   57.7671   66.2620 C   0  0  0  0  0  0  0  0  0  0  0  0
  -45.0881   57.0818   65.4351 C   0  0  0  0  0  0  0  0  0  0  0  0
  -44.2193   58.0306   64.6005 C   0  0  0  0  0  0  0  0  0  0  0  0
  -43.7490   59.2470   65.4090 C   0  0  0  0  0  0  0  0  0  0  0  0
  -42.5667   58.9244   66.3266 C   0  0  0  0  0  0  0  0  0  0  0  0
  -42.2258   60.0577   67.3019 C   0  0  0  0  0  0  0  0  0  0  0  0
  -50.8629   58.9580   62.9437 C   0  0  0  0  0  0  0  0  0  0  0  0
  -49.6786   58.1296   62.4787 C   0  0  0  0  0  0  0  0  0  0  0  0
  -49.9566   57.4843   61.1243 C   0  0  0  0  0  0  0  0  0  0  0  0
  -49.2730   58.2740   60.0167 C   0  0  0  0  0  0  0  0  0  0  0  0
  -47.8313   57.8248   59.8383 C   0  0  0  0  0  0  0  0  0  0  0  0
  -47.4524   57.7662   58.3620 C   0  0  0  0  0  0  0  0  0  0  0  0
  -47.9139   56.4494   57.7684 C   0  0  0  0  0  0  0  0  0  0  0  0
  -48.6669   56.4407   56.7612 O   0  0  0  0  0  0  0  0  0  0  0  0
  -47.5519   55.3587   58.2805 O   0  0  0  0  0  0  0  0  0  0  0  0
  -46.9910   55.3569   59.0312 H   0  0  0  0  0  0  0  0  0  0  0  0
 18 19  2  0  0  0
 18 17  1  0  0  0
 18 20  1  0  0  0
 17 16  1  0  0  0
 20 21  1  0  0  0
 16 15  1  0  0  0
 15 14  1  0  0  0
 14 13  1  0  0  0
 13 12  1  0  0  0
 12  1  1  0  0  0
  1  2  1  0  0  0
  2  3  1  0  0  0
  3  4  1  0  0  0
  4  5  1  0  0  0
  5  6  1  0  0  0
  6  7  1  0  0  0
  7  8  1  0  0  0
  8  9  1  0  0  0
  9 10  1  0  0  0
 10 11  1  0  0  0
M  END
> <minimizedAffinity>
-6.73866

> <CNNscore>
0.5886257887

> <CNNaffinity>
6.6116247177

> <CNN_VS>
3.8917727470

> <CNNaffinity_variance>
0.5773712397

$$$$
