/media/chris/experiments/cd1a-new-docking/inputs/ligands/4x6d_1_ligand.pdb


 21 20  0  0  0  0  0  0  0  0999 V2000
  -46.6934   57.9984   65.6812 C   0  0  0  0  0  0  0  0  0  0  0  0
  -48.0116   57.8127   64.9714 C   0  0  0  0  0  0  0  0  0  0  0  0
  -48.4178   58.7574   63.9219 C   0  0  0  0  0  0  0  0  0  0  0  0
  -49.4542   58.3576   62.8955 C   0  0  0  0  0  0  0  0  0  0  0  0
  -49.7622   59.5334   61.9693 C   0  0  0  0  0  0  0  0  0  0  0  0
  -49.1634   59.3733   60.5746 C   0  0  0  0  0  0  0  0  0  0  0  0
  -49.5680   58.0416   59.9367 C   0  0  0  0  0  0  0  0  0  0  0  0
  -48.4182   57.2604   59.2894 C   0  0  0  0  0  0  0  0  0  0  0  0
  -47.4915   58.1674   58.4690 C   0  0  0  0  0  0  0  0  0  0  0  0
  -46.9345   57.4714   57.2245 C   0  0  0  0  0  0  0  0  0  0  0  0
  -48.0186   56.8360   56.3455 C   0  0  0  0  0  0  0  0  0  0  0  0
  -45.5953   57.9343   64.6320 C   0  0  0  0  0  0  0  0  0  0  0  0
  -44.2129   57.9713   65.2589 C   0  0  0  0  0  0  0  0  0  0  0  0
  -43.6845   59.4003   65.3414 C   0  0  0  0  0  0  0  0  0  0  0  0
  -43.3581   59.7563   66.7850 C   0  0  0  0  0  0  0  0  0  0  0  0
  -41.8827   59.5364   67.0796 C   0  0  0  0  0  0  0  0  0  0  0  0
  -41.0346   59.7509   65.8301 C   0  0  0  0  0  0  0  0  0  0  0  0
  -40.2550   61.0452   65.9584 C   0  0  0  0  0  0  0  0  0  0  0  0
  -39.0077   61.0173   66.1171 O   0  0  0  0  0  0  0  0  0  0  0  0
  -40.8489   62.1534   65.9118 O   0  0  0  0  0  0  0  0  0  0  0  0
  -41.7779   62.1825   65.7938 H   0  0  0  0  0  0  0  0  0  0  0  0
 18 19  2  0  0  0
 18 17  1  0  0  0
 18 20  1  0  0  0
 17 16  1  0  0  0
 20 21  1  0  0  0
 16 15  1  0  0  0
 15 14  1  0  0  0
 14 13  1  0  0  0
 13 12  1  0  0  0
 12  1  1  0  0  0
  1  2  1  0  0  0
  2  3  1  0  0  0
  3  4  1  0  0  0
  4  5  1  0  0  0
  5  6  1  0  0  0
  6  7  1  0  0  0
  7  8  1  0  0  0
  8  9  1  0  0  0
  9 10  1  0  0  0
 10 11  1  0  0  0
M  END
> <minimizedAffinity>
-7.11199

> <CNNscore>
0.9369572401

> <CNNaffinity>
6.8807306290

> <CNN_VS>
6.4469504356

> <CNNaffinity_variance>
0.6702955365

$$$$
/media/chris/experiments/cd1a-new-docking/inputs/ligands/4x6d_1_ligand.pdb


 21 20  0  0  0  0  0  0  0  0999 V2000
  -48.2364   59.4928   65.2452 C   0  0  0  0  0  0  0  0  0  0  0  0
  -49.6128   58.9345   64.9812 C   0  0  0  0  0  0  0  0  0  0  0  0
  -50.6345   59.7759   64.3431 C   0  0  0  0  0  0  0  0  0  0  0  0
  -51.0837   59.4886   62.9278 C   0  0  0  0  0  0  0  0  0  0  0  0
  -50.2106   58.3990   62.3068 C   0  0  0  0  0  0  0  0  0  0  0  0
  -50.9120   57.6295   61.1907 C   0  0  0  0  0  0  0  0  0  0  0  0
  -49.9849   57.4022   59.9938 C   0  0  0  0  0  0  0  0  0  0  0  0
  -48.5350   57.8545   60.2054 C   0  0  0  0  0  0  0  0  0  0  0  0
  -47.7774   58.0093   58.8801 C   0  0  0  0  0  0  0  0  0  0  0  0
  -48.4096   57.2050   57.7413 C   0  0  0  0  0  0  0  0  0  0  0  0
  -47.4265   56.8714   56.6126 C   0  0  0  0  0  0  0  0  0  0  0  0
  -47.2269   58.4235   64.8603 C   0  0  0  0  0  0  0  0  0  0  0  0
  -45.8433   58.7314   65.4047 C   0  0  0  0  0  0  0  0  0  0  0  0
  -45.4775   60.1956   65.1807 C   0  0  0  0  0  0  0  0  0  0  0  0
  -43.9647   60.3553   65.1224 C   0  0  0  0  0  0  0  0  0  0  0  0
  -43.2958   59.6305   66.2797 C   0  0  0  0  0  0  0  0  0  0  0  0
  -42.3820   60.5687   67.0614 C   0  0  0  0  0  0  0  0  0  0  0  0
  -41.1408   60.8703   66.2443 C   0  0  0  0  0  0  0  0  0  0  0  0
  -40.8284   62.0613   65.9875 O   0  0  0  0  0  0  0  0  0  0  0  0
  -40.4186   59.9341   65.8142 O   0  0  0  0  0  0  0  0  0  0  0  0
  -40.6446   59.0442   66.0013 H   0  0  0  0  0  0  0  0  0  0  0  0
 18 19  2  0  0  0
 18 17  1  0  0  0
 18 20  1  0  0  0
 17 16  1  0  0  0
 20 21  1  0  0  0
 16 15  1  0  0  0
 15 14  1  0  0  0
 14 13  1  0  0  0
 13 12  1  0  0  0
 12  1  1  0  0  0
  1  2  1  0  0  0
  2  3  1  0  0  0
  3  4  1  0  0  0
  4  5  1  0  0  0
  5  6  1  0  0  0
  6  7  1  0  0  0
  7  8  1  0  0  0
  8  9  1  0  0  0
  9 10  1  0  0  0
 10 11  1  0  0  0
M  END
> <minimizedAffinity>
-7.16828

> <CNNscore>
0.9284572005

> <CNNaffinity>
6.9664793015

> <CNN_VS>
6.4680776596

> <CNNaffinity_variance>
0.7518735528

$$$$
/media/chris/experiments/cd1a-new-docking/inputs/ligands/4x6d_1_ligand.pdb


 21 20  0  0  0  0  0  0  0  0999 V2000
  -46.0410   59.6601   65.2733 C   0  0  0  0  0  0  0  0  0  0  0  0
  -47.5493   59.6913   65.2819 C   0  0  0  0  0  0  0  0  0  0  0  0
  -48.3064   58.4469   65.4743 C   0  0  0  0  0  0  0  0  0  0  0  0
  -49.8130   58.4425   65.3404 C   0  0  0  0  0  0  0  0  0  0  0  0
  -50.3570   59.8669   65.4415 C   0  0  0  0  0  0  0  0  0  0  0  0
  -51.1355   60.3027   64.2031 C   0  0  0  0  0  0  0  0  0  0  0  0
  -50.9355   59.3280   63.0396 C   0  0  0  0  0  0  0  0  0  0  0  0
  -49.9335   59.7907   61.9750 C   0  0  0  0  0  0  0  0  0  0  0  0
  -48.9813   58.6657   61.5481 C   0  0  0  0  0  0  0  0  0  0  0  0
  -49.1945   58.2312   60.0958 C   0  0  0  0  0  0  0  0  0  0  0  0
  -47.9125   58.2668   59.2551 C   0  0  0  0  0  0  0  0  0  0  0  0
  -45.6142   58.2520   64.8913 C   0  0  0  0  0  0  0  0  0  0  0  0
  -44.1301   58.1771   64.5797 C   0  0  0  0  0  0  0  0  0  0  0  0
  -43.3992   57.2999   65.5918 C   0  0  0  0  0  0  0  0  0  0  0  0
  -42.6455   58.1674   66.5902 C   0  0  0  0  0  0  0  0  0  0  0  0
  -41.7111   59.1317   65.8767 C   0  0  0  0  0  0  0  0  0  0  0  0
  -41.7566   60.5158   66.5160 C   0  0  0  0  0  0  0  0  0  0  0  0
  -40.7001   61.4034   65.8874 C   0  0  0  0  0  0  0  0  0  0  0  0
  -39.4817   61.1964   66.1207 O   0  0  0  0  0  0  0  0  0  0  0  0
  -41.0336   62.3539   65.1335 O   0  0  0  0  0  0  0  0  0  0  0  0
  -41.9392   62.5146   64.9548 H   0  0  0  0  0  0  0  0  0  0  0  0
 18 19  2  0  0  0
 18 17  1  0  0  0
 18 20  1  0  0  0
 17 16  1  0  0  0
 20 21  1  0  0  0
 16 15  1  0  0  0
 15 14  1  0  0  0
 14 13  1  0  0  0
 13 12  1  0  0  0
 12  1  1  0  0  0
  1  2  1  0  0  0
  2  3  1  0  0  0
  3  4  1  0  0  0
  4  5  1  0  0  0
  5  6  1  0  0  0
  6  7  1  0  0  0
  7  8  1  0  0  0
  8  9  1  0  0  0
  9 10  1  0  0  0
 10 11  1  0  0  0
M  END
> <minimizedAffinity>
-6.99919

> <CNNscore>
0.8420472145

> <CNNaffinity>
6.6597685814

> <CNN_VS>
5.6078395844

> <CNNaffinity_variance>
0.4742843509

$$$$
/media/chris/experiments/cd1a-new-docking/inputs/ligands/4x6d_1_ligand.pdb


 21 20  0  0  0  0  0  0  0  0999 V2000
  -48.5542   58.7862   64.1831 C   0  0  0  0  0  0  0  0  0  0  0  0
  -50.0385   58.5308   64.0969 C   0  0  0  0  0  0  0  0  0  0  0  0
  -50.8013   59.0276   62.9434 C   0  0  0  0  0  0  0  0  0  0  0  0
  -50.2835   58.8155   61.5383 C   0  0  0  0  0  0  0  0  0  0  0  0
  -50.6798   57.4291   61.0323 C   0  0  0  0  0  0  0  0  0  0  0  0
  -49.6283   56.7968   60.1245 C   0  0  0  0  0  0  0  0  0  0  0  0
  -48.6993   57.8519   59.5180 C   0  0  0  0  0  0  0  0  0  0  0  0
  -47.3536   57.3148   59.0160 C   0  0  0  0  0  0  0  0  0  0  0  0
  -47.0303   57.7985   57.5961 C   0  0  0  0  0  0  0  0  0  0  0  0
  -47.7564   56.9903   56.5176 C   0  0  0  0  0  0  0  0  0  0  0  0
  -47.5415   55.4771   56.6425 C   0  0  0  0  0  0  0  0  0  0  0  0
  -48.3540   60.2884   64.3014 C   0  0  0  0  0  0  0  0  0  0  0  0
  -47.5866   60.6583   65.5582 C   0  0  0  0  0  0  0  0  0  0  0  0
  -46.2874   59.8652   65.6628 C   0  0  0  0  0  0  0  0  0  0  0  0
  -46.2932   59.0129   66.9241 C   0  0  0  0  0  0  0  0  0  0  0  0
  -45.6702   57.6506   66.6633 C   0  0  0  0  0  0  0  0  0  0  0  0
  -44.8938   57.6433   65.3504 C   0  0  0  0  0  0  0  0  0  0  0  0
  -43.4275   57.9172   65.6230 C   0  0  0  0  0  0  0  0  0  0  0  0
  -42.8636   57.3988   66.6206 O   0  0  0  0  0  0  0  0  0  0  0  0
  -42.7669   58.6666   64.8581 O   0  0  0  0  0  0  0  0  0  0  0  0
  -43.1798   59.0564   64.1128 H   0  0  0  0  0  0  0  0  0  0  0  0
 18 19  2  0  0  0
 18 17  1  0  0  0
 18 20  1  0  0  0
 17 16  1  0  0  0
 20 21  1  0  0  0
 16 15  1  0  0  0
 15 14  1  0  0  0
 14 13  1  0  0  0
 13 12  1  0  0  0
 12  1  1  0  0  0
  1  2  1  0  0  0
  2  3  1  0  0  0
  3  4  1  0  0  0
  4  5  1  0  0  0
  5  6  1  0  0  0
  6  7  1  0  0  0
  7  8  1  0  0  0
  8  9  1  0  0  0
  9 10  1  0  0  0
 10 11  1  0  0  0
M  END
> <minimizedAffinity>
-7.08831

> <CNNscore>
0.7956147194

> <CNNaffinity>
6.6533136368

> <CNN_VS>
5.2934741974

> <CNNaffinity_variance>
0.5836550593

$$$$
/media/chris/experiments/cd1a-new-docking/inputs/ligands/4x6d_1_ligand.pdb


 21 20  0  0  0  0  0  0  0  0999 V2000
  -44.9443   57.1462   65.1406 C   0  0  0  0  0  0  0  0  0  0  0  0
  -46.0283   57.4319   66.1502 C   0  0  0  0  0  0  0  0  0  0  0  0
  -47.1591   58.2963   65.7857 C   0  0  0  0  0  0  0  0  0  0  0  0
  -48.5296   57.7009   65.5518 C   0  0  0  0  0  0  0  0  0  0  0  0
  -49.5705   58.8103   65.4069 C   0  0  0  0  0  0  0  0  0  0  0  0
  -49.0401   60.0409   64.6761 C   0  0  0  0  0  0  0  0  0  0  0  0
  -49.8782   60.3652   63.4366 C   0  0  0  0  0  0  0  0  0  0  0  0
  -50.8666   59.2690   63.0210 C   0  0  0  0  0  0  0  0  0  0  0  0
  -50.4013   58.5142   61.7687 C   0  0  0  0  0  0  0  0  0  0  0  0
  -49.3737   59.3022   60.9523 C   0  0  0  0  0  0  0  0  0  0  0  0
  -48.5318   58.4220   60.0206 C   0  0  0  0  0  0  0  0  0  0  0  0
  -43.6125   57.1969   65.8718 C   0  0  0  0  0  0  0  0  0  0  0  0
  -42.7277   58.3178   65.3561 C   0  0  0  0  0  0  0  0  0  0  0  0
  -42.1846   59.1626   66.5047 C   0  0  0  0  0  0  0  0  0  0  0  0
  -42.2518   60.6406   66.1463 C   0  0  0  0  0  0  0  0  0  0  0  0
  -40.8646   61.2634   66.1430 C   0  0  0  0  0  0  0  0  0  0  0  0
  -39.9959   60.6650   65.0414 C   0  0  0  0  0  0  0  0  0  0  0  0
  -38.6934   60.1635   65.6342 C   0  0  0  0  0  0  0  0  0  0  0  0
  -38.3336   58.9725   65.4501 O   0  0  0  0  0  0  0  0  0  0  0  0
  -37.9672   60.9315   66.3166 O   0  0  0  0  0  0  0  0  0  0  0  0
  -38.2283   61.8202   66.4582 H   0  0  0  0  0  0  0  0  0  0  0  0
 18 19  2  0  0  0
 18 17  1  0  0  0
 18 20  1  0  0  0
 17 16  1  0  0  0
 20 21  1  0  0  0
 16 15  1  0  0  0
 15 14  1  0  0  0
 14 13  1  0  0  0
 13 12  1  0  0  0
 12  1  1  0  0  0
  1  2  1  0  0  0
  2  3  1  0  0  0
  3  4  1  0  0  0
  4  5  1  0  0  0
  5  6  1  0  0  0
  6  7  1  0  0  0
  7  8  1  0  0  0
  8  9  1  0  0  0
  9 10  1  0  0  0
 10 11  1  0  0  0
M  END
> <minimizedAffinity>
-6.27324

> <CNNscore>
0.7947754860

> <CNNaffinity>
6.5386795998

> <CNN_VS>
5.1967821121

> <CNNaffinity_variance>
0.6780861616

$$$$
/media/chris/experiments/cd1a-new-docking/inputs/ligands/4x6d_1_ligand.pdb


 21 20  0  0  0  0  0  0  0  0999 V2000
  -47.7375   59.0740   65.0765 C   0  0  0  0  0  0  0  0  0  0  0  0
  -49.0389   59.2681   65.8144 C   0  0  0  0  0  0  0  0  0  0  0  0
  -50.3149   59.0645   65.1148 C   0  0  0  0  0  0  0  0  0  0  0  0
  -50.8639   60.1384   64.2022 C   0  0  0  0  0  0  0  0  0  0  0  0
  -50.7953   59.6806   62.7458 C   0  0  0  0  0  0  0  0  0  0  0  0
  -50.5577   58.1802   62.5975 C   0  0  0  0  0  0  0  0  0  0  0  0
  -50.8763   57.6963   61.1804 C   0  0  0  0  0  0  0  0  0  0  0  0
  -49.7079   57.0227   60.4506 C   0  0  0  0  0  0  0  0  0  0  0  0
  -48.9098   58.0156   59.5952 C   0  0  0  0  0  0  0  0  0  0  0  0
  -47.5898   57.4294   59.0876 C   0  0  0  0  0  0  0  0  0  0  0  0
  -47.0799   58.0979   57.8051 C   0  0  0  0  0  0  0  0  0  0  0  0
  -47.1145   60.4463   64.8780 C   0  0  0  0  0  0  0  0  0  0  0  0
  -45.6333   60.4474   65.2119 C   0  0  0  0  0  0  0  0  0  0  0  0
  -45.0753   59.0277   65.2421 C   0  0  0  0  0  0  0  0  0  0  0  0
  -43.6939   58.9933   64.6034 C   0  0  0  0  0  0  0  0  0  0  0  0
  -43.1167   60.3946   64.4790 C   0  0  0  0  0  0  0  0  0  0  0  0
  -41.6184   60.3993   64.7640 C   0  0  0  0  0  0  0  0  0  0  0  0
  -41.3452   61.1606   66.0467 C   0  0  0  0  0  0  0  0  0  0  0  0
  -42.0675   60.9713   67.0588 O   0  0  0  0  0  0  0  0  0  0  0  0
  -40.3995   61.9883   66.1067 O   0  0  0  0  0  0  0  0  0  0  0  0
  -39.8569   62.1348   65.3570 H   0  0  0  0  0  0  0  0  0  0  0  0
 18 19  2  0  0  0
 18 17  1  0  0  0
 18 20  1  0  0  0
 17 16  1  0  0  0
 20 21  1  0  0  0
 16 15  1  0  0  0
 15 14  1  0  0  0
 14 13  1  0  0  0
 13 12  1  0  0  0
 12  1  1  0  0  0
  1  2  1  0  0  0
  2  3  1  0  0  0
  3  4  1  0  0  0
  4  5  1  0  0  0
  5  6  1  0  0  0
  6  7  1  0  0  0
  7  8  1  0  0  0
  8  9  1  0  0  0
  9 10  1  0  0  0
 10 11  1  0  0  0
M  END
> <minimizedAffinity>
-7.14938

> <CNNscore>
0.7678549886

> <CNNaffinity>
6.6376099586

> <CNN_VS>
5.0967221260

> <CNNaffinity_variance>
0.6720426083

$$$$
/media/chris/experiments/cd1a-new-docking/inputs/ligands/4x6d_1_ligand.pdb


 21 20  0  0  0  0  0  0  0  0999 V2000
  -48.3842   59.5416   66.2145 C   0  0  0  0  0  0  0  0  0  0  0  0
  -49.6623   59.2137   65.4833 C   0  0  0  0  0  0  0  0  0  0  0  0
  -50.2401   60.1867   64.5460 C   0  0  0  0  0  0  0  0  0  0  0  0
  -50.4688   59.8089   63.0995 C   0  0  0  0  0  0  0  0  0  0  0  0
  -49.5041   60.5741   62.1943 C   0  0  0  0  0  0  0  0  0  0  0  0
  -49.3628   59.9551   60.8063 C   0  0  0  0  0  0  0  0  0  0  0  0
  -49.5136   58.4322   60.8502 C   0  0  0  0  0  0  0  0  0  0  0  0
  -49.2728   57.7211   59.5131 C   0  0  0  0  0  0  0  0  0  0  0  0
  -48.0471   56.7991   59.5600 C   0  0  0  0  0  0  0  0  0  0  0  0
  -47.1778   56.9084   58.3047 C   0  0  0  0  0  0  0  0  0  0  0  0
  -47.0745   58.3374   57.7580 C   0  0  0  0  0  0  0  0  0  0  0  0
  -47.7403   60.7217   65.5047 C   0  0  0  0  0  0  0  0  0  0  0  0
  -46.3013   60.4307   65.1176 C   0  0  0  0  0  0  0  0  0  0  0  0
  -45.6450   59.4802   66.1144 C   0  0  0  0  0  0  0  0  0  0  0  0
  -44.1394   59.7042   66.1398 C   0  0  0  0  0  0  0  0  0  0  0  0
  -43.5839   59.8289   64.7298 C   0  0  0  0  0  0  0  0  0  0  0  0
  -42.0789   60.0758   64.7517 C   0  0  0  0  0  0  0  0  0  0  0  0
  -41.7693   61.4013   64.0836 C   0  0  0  0  0  0  0  0  0  0  0  0
  -40.6910   61.9980   64.3350 O   0  0  0  0  0  0  0  0  0  0  0  0
  -42.5884   61.9151   63.2786 O   0  0  0  0  0  0  0  0  0  0  0  0
  -43.3938   61.4768   63.0861 H   0  0  0  0  0  0  0  0  0  0  0  0
 18 19  2  0  0  0
 18 17  1  0  0  0
 18 20  1  0  0  0
 17 16  1  0  0  0
 20 21  1  0  0  0
 16 15  1  0  0  0
 15 14  1  0  0  0
 14 13  1  0  0  0
 13 12  1  0  0  0
 12  1  1  0  0  0
  1  2  1  0  0  0
  2  3  1  0  0  0
  3  4  1  0  0  0
  4  5  1  0  0  0
  5  6  1  0  0  0
  6  7  1  0  0  0
  7  8  1  0  0  0
  8  9  1  0  0  0
  9 10  1  0  0  0
 10 11  1  0  0  0
M  END
> <minimizedAffinity>
-6.66927

> <CNNscore>
0.7654856443

> <CNNaffinity>
6.4942383766

> <CNN_VS>
4.9712462425

> <CNNaffinity_variance>
0.4717653692

$$$$
/media/chris/experiments/cd1a-new-docking/inputs/ligands/4x6d_1_ligand.pdb


 21 20  0  0  0  0  0  0  0  0999 V2000
  -49.7927   59.1039   64.6344 C   0  0  0  0  0  0  0  0  0  0  0  0
  -48.7213   58.0418   64.6364 C   0  0  0  0  0  0  0  0  0  0  0  0
  -47.4729   58.2623   65.3793 C   0  0  0  0  0  0  0  0  0  0  0  0
  -46.7945   57.1118   66.0890 C   0  0  0  0  0  0  0  0  0  0  0  0
  -45.2990   57.1047   65.7748 C   0  0  0  0  0  0  0  0  0  0  0  0
  -44.9424   57.9102   64.5284 C   0  0  0  0  0  0  0  0  0  0  0  0
  -43.6933   58.7675   64.7495 C   0  0  0  0  0  0  0  0  0  0  0  0
  -43.8710   59.9231   65.7416 C   0  0  0  0  0  0  0  0  0  0  0  0
  -42.7731   59.9400   66.8135 C   0  0  0  0  0  0  0  0  0  0  0  0
  -41.6254   60.8923   66.4679 C   0  0  0  0  0  0  0  0  0  0  0  0
  -40.3902   60.1784   65.9055 C   0  0  0  0  0  0  0  0  0  0  0  0
  -50.5723   58.9654   63.3367 C   0  0  0  0  0  0  0  0  0  0  0  0
  -49.7573   59.4165   62.1377 C   0  0  0  0  0  0  0  0  0  0  0  0
  -49.6493   58.3061   61.0970 C   0  0  0  0  0  0  0  0  0  0  0  0
  -48.6774   58.7104   59.9973 C   0  0  0  0  0  0  0  0  0  0  0  0
  -47.8356   57.5250   59.5520 C   0  0  0  0  0  0  0  0  0  0  0  0
  -47.4338   57.6557   58.0864 C   0  0  0  0  0  0  0  0  0  0  0  0
  -47.4932   56.2960   57.4177 C   0  0  0  0  0  0  0  0  0  0  0  0
  -47.2174   56.1812   56.1959 O   0  0  0  0  0  0  0  0  0  0  0  0
  -47.8222   55.2762   58.0769 O   0  0  0  0  0  0  0  0  0  0  0  0
  -48.0290   55.3535   58.9875 H   0  0  0  0  0  0  0  0  0  0  0  0
 18 19  2  0  0  0
 18 17  1  0  0  0
 18 20  1  0  0  0
 17 16  1  0  0  0
 20 21  1  0  0  0
 16 15  1  0  0  0
 15 14  1  0  0  0
 14 13  1  0  0  0
 13 12  1  0  0  0
 12  1  1  0  0  0
  1  2  1  0  0  0
  2  3  1  0  0  0
  3  4  1  0  0  0
  4  5  1  0  0  0
  5  6  1  0  0  0
  6  7  1  0  0  0
  7  8  1  0  0  0
  8  9  1  0  0  0
  9 10  1  0  0  0
 10 11  1  0  0  0
M  END
> <minimizedAffinity>
-6.69010

> <CNNscore>
0.7546963692

> <CNNaffinity>
6.7725400925

> <CNN_VS>
5.1112112999

> <CNNaffinity_variance>
0.5916818976

$$$$
/media/chris/experiments/cd1a-new-docking/inputs/ligands/4x6d_1_ligand.pdb


 21 20  0  0  0  0  0  0  0  0999 V2000
  -50.7505   59.5854   63.1822 C   0  0  0  0  0  0  0  0  0  0  0  0
  -50.4893   59.6441   64.6669 C   0  0  0  0  0  0  0  0  0  0  0  0
  -49.8458   58.5091   65.3427 C   0  0  0  0  0  0  0  0  0  0  0  0
  -48.4721   58.0448   64.9128 C   0  0  0  0  0  0  0  0  0  0  0  0
  -47.4037   59.0113   65.4225 C   0  0  0  0  0  0  0  0  0  0  0  0
  -46.1188   58.3122   65.8581 C   0  0  0  0  0  0  0  0  0  0  0  0
  -45.3164   57.8071   64.6560 C   0  0  0  0  0  0  0  0  0  0  0  0
  -43.7958   57.9558   64.7865 C   0  0  0  0  0  0  0  0  0  0  0  0
  -43.2975   57.5970   66.1927 C   0  0  0  0  0  0  0  0  0  0  0  0
  -42.3004   58.6193   66.7443 C   0  0  0  0  0  0  0  0  0  0  0  0
  -42.9304   59.9857   67.0406 C   0  0  0  0  0  0  0  0  0  0  0  0
  -49.6966   60.4406   62.4975 C   0  0  0  0  0  0  0  0  0  0  0  0
  -49.4274   59.9753   61.0776 C   0  0  0  0  0  0  0  0  0  0  0  0
  -49.4720   58.4534   60.9797 C   0  0  0  0  0  0  0  0  0  0  0  0
  -49.2894   58.0151   59.5333 C   0  0  0  0  0  0  0  0  0  0  0  0
  -47.8147   57.9265   59.1736 C   0  0  0  0  0  0  0  0  0  0  0  0
  -47.6281   57.5702   57.7023 C   0  0  0  0  0  0  0  0  0  0  0  0
  -47.5995   56.0627   57.5418 C   0  0  0  0  0  0  0  0  0  0  0  0
  -47.7628   55.5457   56.4070 O   0  0  0  0  0  0  0  0  0  0  0  0
  -47.4172   55.3195   58.5406 O   0  0  0  0  0  0  0  0  0  0  0  0
  -47.2947   55.6971   59.3893 H   0  0  0  0  0  0  0  0  0  0  0  0
 18 19  2  0  0  0
 18 17  1  0  0  0
 18 20  1  0  0  0
 17 16  1  0  0  0
 20 21  1  0  0  0
 16 15  1  0  0  0
 15 14  1  0  0  0
 14 13  1  0  0  0
 13 12  1  0  0  0
 12  1  1  0  0  0
  1  2  1  0  0  0
  2  3  1  0  0  0
  3  4  1  0  0  0
  4  5  1  0  0  0
  5  6  1  0  0  0
  6  7  1  0  0  0
  7  8  1  0  0  0
  8  9  1  0  0  0
  9 10  1  0  0  0
 10 11  1  0  0  0
M  END
> <minimizedAffinity>
-7.07157

> <CNNscore>
0.7173853517

> <CNNaffinity>
6.7720365524

> <CNN_VS>
4.8581600189

> <CNNaffinity_variance>
0.5720309615

$$$$
