/media/chris/experiments/cd1a-new-docking/inputs/ligands/4x6d_1_ligand.pdb


 21 20  0  0  0  0  0  0  0  0999 V2000
  -47.0472   60.5443   65.3757 C   0  0  0  0  0  0  0  0  0  0  0  0
  -48.1508   60.9916   64.4495 C   0  0  0  0  0  0  0  0  0  0  0  0
  -49.0074   59.9930   63.7951 C   0  0  0  0  0  0  0  0  0  0  0  0
  -50.5129   60.0956   63.8972 C   0  0  0  0  0  0  0  0  0  0  0  0
  -51.1739   59.3345   62.7487 C   0  0  0  0  0  0  0  0  0  0  0  0
  -50.1843   58.8832   61.6779 C   0  0  0  0  0  0  0  0  0  0  0  0
  -50.6197   57.5677   61.0267 C   0  0  0  0  0  0  0  0  0  0  0  0
  -49.6156   56.9785   60.0287 C   0  0  0  0  0  0  0  0  0  0  0  0
  -48.2873   57.7467   60.0217 C   0  0  0  0  0  0  0  0  0  0  0  0
  -47.2817   57.1777   59.0173 C   0  0  0  0  0  0  0  0  0  0  0  0
  -47.3172   57.8810   57.6551 C   0  0  0  0  0  0  0  0  0  0  0  0
  -46.6717   59.1231   64.9880 C   0  0  0  0  0  0  0  0  0  0  0  0
  -45.1680   58.9141   64.9973 C   0  0  0  0  0  0  0  0  0  0  0  0
  -44.4516   60.1006   65.6353 C   0  0  0  0  0  0  0  0  0  0  0  0
  -43.6502   59.6408   66.8452 C   0  0  0  0  0  0  0  0  0  0  0  0
  -42.3860   60.4701   67.0077 C   0  0  0  0  0  0  0  0  0  0  0  0
  -41.2116   59.8318   66.2730 C   0  0  0  0  0  0  0  0  0  0  0  0
  -40.1786   60.8918   65.9434 C   0  0  0  0  0  0  0  0  0  0  0  0
  -40.4515   62.1093   66.1012 O   0  0  0  0  0  0  0  0  0  0  0  0
  -39.0456   60.5625   65.5065 O   0  0  0  0  0  0  0  0  0  0  0  0
  -38.8348   59.6576   65.3862 H   0  0  0  0  0  0  0  0  0  0  0  0
 18 19  2  0  0  0
 18 17  1  0  0  0
 18 20  1  0  0  0
 17 16  1  0  0  0
 20 21  1  0  0  0
 16 15  1  0  0  0
 15 14  1  0  0  0
 14 13  1  0  0  0
 13 12  1  0  0  0
 12  1  1  0  0  0
  1  2  1  0  0  0
  2  3  1  0  0  0
  3  4  1  0  0  0
  4  5  1  0  0  0
  5  6  1  0  0  0
  6  7  1  0  0  0
  7  8  1  0  0  0
  8  9  1  0  0  0
  9 10  1  0  0  0
 10 11  1  0  0  0
M  END
> <minimizedAffinity>
-7.11436

> <CNNscore>
0.9105647206

> <CNNaffinity>
6.8891320229

> <CNN_VS>
6.2730007172

> <CNNaffinity_variance>
0.7320184708

$$$$
/media/chris/experiments/cd1a-new-docking/inputs/ligands/4x6d_1_ligand.pdb


 21 20  0  0  0  0  0  0  0  0999 V2000
  -48.4829   59.2291   65.1879 C   0  0  0  0  0  0  0  0  0  0  0  0
  -49.0135   60.5009   64.5742 C   0  0  0  0  0  0  0  0  0  0  0  0
  -49.7239   60.4530   63.2889 C   0  0  0  0  0  0  0  0  0  0  0  0
  -50.9209   59.5455   63.1127 C   0  0  0  0  0  0  0  0  0  0  0  0
  -50.6102   58.4527   62.0907 C   0  0  0  0  0  0  0  0  0  0  0  0
  -49.1513   58.4459   61.6422 C   0  0  0  0  0  0  0  0  0  0  0  0
  -49.0279   58.5982   60.1237 C   0  0  0  0  0  0  0  0  0  0  0  0
  -48.0194   57.6526   59.4602 C   0  0  0  0  0  0  0  0  0  0  0  0
  -47.3844   58.2700   58.2072 C   0  0  0  0  0  0  0  0  0  0  0  0
  -46.9152   57.2148   57.2022 C   0  0  0  0  0  0  0  0  0  0  0  0
  -47.9852   56.8380   56.1705 C   0  0  0  0  0  0  0  0  0  0  0  0
  -47.0143   59.1169   64.8116 C   0  0  0  0  0  0  0  0  0  0  0  0
  -46.2381   60.3662   65.1885 C   0  0  0  0  0  0  0  0  0  0  0  0
  -44.7409   60.0821   65.2628 C   0  0  0  0  0  0  0  0  0  0  0  0
  -44.3816   59.5156   66.6293 C   0  0  0  0  0  0  0  0  0  0  0  0
  -42.8790   59.3217   66.7601 C   0  0  0  0  0  0  0  0  0  0  0  0
  -42.1890   60.6235   67.1548 C   0  0  0  0  0  0  0  0  0  0  0  0
  -41.0371   60.8982   66.2078 C   0  0  0  0  0  0  0  0  0  0  0  0
  -40.5572   62.0572   66.1175 O   0  0  0  0  0  0  0  0  0  0  0  0
  -40.5570   59.9724   65.5038 O   0  0  0  0  0  0  0  0  0  0  0  0
  -40.9091   59.1063   65.5654 H   0  0  0  0  0  0  0  0  0  0  0  0
 18 19  2  0  0  0
 18 17  1  0  0  0
 18 20  1  0  0  0
 17 16  1  0  0  0
 20 21  1  0  0  0
 16 15  1  0  0  0
 15 14  1  0  0  0
 14 13  1  0  0  0
 13 12  1  0  0  0
 12  1  1  0  0  0
  1  2  1  0  0  0
  2  3  1  0  0  0
  3  4  1  0  0  0
  4  5  1  0  0  0
  5  6  1  0  0  0
  6  7  1  0  0  0
  7  8  1  0  0  0
  8  9  1  0  0  0
  9 10  1  0  0  0
 10 11  1  0  0  0
M  END
> <minimizedAffinity>
-7.18886

> <CNNscore>
0.8984010220

> <CNNaffinity>
6.8343811035

> <CNN_VS>
6.1400151253

> <CNNaffinity_variance>
0.6509269476

$$$$
/media/chris/experiments/cd1a-new-docking/inputs/ligands/4x6d_1_ligand.pdb


 21 20  0  0  0  0  0  0  0  0999 V2000
  -46.5975   58.3604   64.6263 C   0  0  0  0  0  0  0  0  0  0  0  0
  -47.9808   58.0106   65.1162 C   0  0  0  0  0  0  0  0  0  0  0  0
  -48.7968   59.0276   65.7935 C   0  0  0  0  0  0  0  0  0  0  0  0
  -50.2882   59.0939   65.5512 C   0  0  0  0  0  0  0  0  0  0  0  0
  -50.6018   60.1165   64.4598 C   0  0  0  0  0  0  0  0  0  0  0  0
  -50.9292   59.4774   63.1129 C   0  0  0  0  0  0  0  0  0  0  0  0
  -49.8009   59.6885   62.0998 C   0  0  0  0  0  0  0  0  0  0  0  0
  -49.1666   58.4000   61.5624 C   0  0  0  0  0  0  0  0  0  0  0  0
  -49.1541   58.3567   60.0286 C   0  0  0  0  0  0  0  0  0  0  0  0
  -47.8179   57.8687   59.4628 C   0  0  0  0  0  0  0  0  0  0  0  0
  -47.8851   57.4972   57.9766 C   0  0  0  0  0  0  0  0  0  0  0  0
  -45.5991   57.6832   65.5513 C   0  0  0  0  0  0  0  0  0  0  0  0
  -44.3069   57.3391   64.8323 C   0  0  0  0  0  0  0  0  0  0  0  0
  -43.2648   58.4380   65.0177 C   0  0  0  0  0  0  0  0  0  0  0  0
  -43.2811   58.9393   66.4551 C   0  0  0  0  0  0  0  0  0  0  0  0
  -41.9017   59.4179   66.8801 C   0  0  0  0  0  0  0  0  0  0  0  0
  -41.0361   59.7463   65.6679 C   0  0  0  0  0  0  0  0  0  0  0  0
  -40.2510   61.0168   65.9304 C   0  0  0  0  0  0  0  0  0  0  0  0
  -40.8415   62.1265   65.9701 O   0  0  0  0  0  0  0  0  0  0  0  0
  -39.0059   60.9710   66.1055 O   0  0  0  0  0  0  0  0  0  0  0  0
  -38.5588   60.1481   66.0774 H   0  0  0  0  0  0  0  0  0  0  0  0
 18 19  2  0  0  0
 18 17  1  0  0  0
 18 20  1  0  0  0
 17 16  1  0  0  0
 20 21  1  0  0  0
 16 15  1  0  0  0
 15 14  1  0  0  0
 14 13  1  0  0  0
 13 12  1  0  0  0
 12  1  1  0  0  0
  1  2  1  0  0  0
  2  3  1  0  0  0
  3  4  1  0  0  0
  4  5  1  0  0  0
  5  6  1  0  0  0
  6  7  1  0  0  0
  7  8  1  0  0  0
  8  9  1  0  0  0
  9 10  1  0  0  0
 10 11  1  0  0  0
M  END
> <minimizedAffinity>
-6.95336

> <CNNscore>
0.8979935050

> <CNNaffinity>
6.9036207199

> <CNN_VS>
6.1994066238

> <CNNaffinity_variance>
0.6701385975

$$$$
/media/chris/experiments/cd1a-new-docking/inputs/ligands/4x6d_1_ligand.pdb


 21 20  0  0  0  0  0  0  0  0999 V2000
  -47.6965   57.5875   65.5668 C   0  0  0  0  0  0  0  0  0  0  0  0
  -47.5290   58.6033   64.4641 C   0  0  0  0  0  0  0  0  0  0  0  0
  -48.5138   58.6718   63.3757 C   0  0  0  0  0  0  0  0  0  0  0  0
  -49.9864   58.4879   63.6672 C   0  0  0  0  0  0  0  0  0  0  0  0
  -50.8107   58.7381   62.4050 C   0  0  0  0  0  0  0  0  0  0  0  0
  -51.0027   57.4857   61.5540 C   0  0  0  0  0  0  0  0  0  0  0  0
  -50.4826   57.6879   60.1282 C   0  0  0  0  0  0  0  0  0  0  0  0
  -49.3439   58.7063   59.9951 C   0  0  0  0  0  0  0  0  0  0  0  0
  -48.0031   58.0362   59.6667 C   0  0  0  0  0  0  0  0  0  0  0  0
  -48.0674   57.1761   58.4019 C   0  0  0  0  0  0  0  0  0  0  0  0
  -47.1326   57.6612   57.2873 C   0  0  0  0  0  0  0  0  0  0  0  0
  -46.3264   57.3475   66.1803 C   0  0  0  0  0  0  0  0  0  0  0  0
  -45.2332   58.0817   65.4247 C   0  0  0  0  0  0  0  0  0  0  0  0
  -44.0943   57.1381   65.0501 C   0  0  0  0  0  0  0  0  0  0  0  0
  -42.7778   57.6551   65.6132 C   0  0  0  0  0  0  0  0  0  0  0  0
  -42.5386   59.0987   65.1994 C   0  0  0  0  0  0  0  0  0  0  0  0
  -41.4886   59.7584   66.0876 C   0  0  0  0  0  0  0  0  0  0  0  0
  -41.0478   61.0705   65.4686 C   0  0  0  0  0  0  0  0  0  0  0  0
  -41.2613   61.2965   64.2500 O   0  0  0  0  0  0  0  0  0  0  0  0
  -40.4627   61.9388   66.1664 O   0  0  0  0  0  0  0  0  0  0  0  0
  -40.2999   61.7779   67.0749 H   0  0  0  0  0  0  0  0  0  0  0  0
 18 19  2  0  0  0
 18 17  1  0  0  0
 18 20  1  0  0  0
 17 16  1  0  0  0
 20 21  1  0  0  0
 16 15  1  0  0  0
 15 14  1  0  0  0
 14 13  1  0  0  0
 13 12  1  0  0  0
 12  1  1  0  0  0
  1  2  1  0  0  0
  2  3  1  0  0  0
  3  4  1  0  0  0
  4  5  1  0  0  0
  5  6  1  0  0  0
  6  7  1  0  0  0
  7  8  1  0  0  0
  8  9  1  0  0  0
  9 10  1  0  0  0
 10 11  1  0  0  0
M  END
> <minimizedAffinity>
-6.94200

> <CNNscore>
0.8765143156

> <CNNaffinity>
6.9022979736

> <CNN_VS>
6.0499629974

> <CNNaffinity_variance>
0.6759470105

$$$$
/media/chris/experiments/cd1a-new-docking/inputs/ligands/4x6d_1_ligand.pdb


 21 20  0  0  0  0  0  0  0  0999 V2000
  -44.2362   58.3656   65.2628 C   0  0  0  0  0  0  0  0  0  0  0  0
  -45.1414   57.1780   65.4775 C   0  0  0  0  0  0  0  0  0  0  0  0
  -46.3597   57.3225   66.2862 C   0  0  0  0  0  0  0  0  0  0  0  0
  -47.7218   57.1726   65.6463 C   0  0  0  0  0  0  0  0  0  0  0  0
  -48.3620   58.5445   65.4378 C   0  0  0  0  0  0  0  0  0  0  0  0
  -49.8763   58.4804   65.2579 C   0  0  0  0  0  0  0  0  0  0  0  0
  -50.4650   59.8580   64.9418 C   0  0  0  0  0  0  0  0  0  0  0  0
  -51.1085   59.9821   63.5555 C   0  0  0  0  0  0  0  0  0  0  0  0
  -50.8686   58.7365   62.6921 C   0  0  0  0  0  0  0  0  0  0  0  0
  -49.9339   59.0084   61.5106 C   0  0  0  0  0  0  0  0  0  0  0  0
  -49.5212   60.4801   61.3865 C   0  0  0  0  0  0  0  0  0  0  0  0
  -44.3401   59.2493   66.4954 C   0  0  0  0  0  0  0  0  0  0  0  0
  -42.9756   59.7088   66.9771 C   0  0  0  0  0  0  0  0  0  0  0  0
  -41.8573   59.0103   66.2093 C   0  0  0  0  0  0  0  0  0  0  0  0
  -41.0549   60.0275   65.4099 C   0  0  0  0  0  0  0  0  0  0  0  0
  -40.0283   59.3372   64.5256 C   0  0  0  0  0  0  0  0  0  0  0  0
  -38.7922   58.9394   65.3259 C   0  0  0  0  0  0  0  0  0  0  0  0
  -37.8108   60.0949   65.3573 C   0  0  0  0  0  0  0  0  0  0  0  0
  -37.8243   60.9081   66.3165 O   0  0  0  0  0  0  0  0  0  0  0  0
  -36.9810   60.2509   64.4245 O   0  0  0  0  0  0  0  0  0  0  0  0
  -36.9648   59.6493   63.7064 H   0  0  0  0  0  0  0  0  0  0  0  0
 18 19  2  0  0  0
 18 17  1  0  0  0
 18 20  1  0  0  0
 17 16  1  0  0  0
 20 21  1  0  0  0
 16 15  1  0  0  0
 15 14  1  0  0  0
 14 13  1  0  0  0
 13 12  1  0  0  0
 12  1  1  0  0  0
  1  2  1  0  0  0
  2  3  1  0  0  0
  3  4  1  0  0  0
  4  5  1  0  0  0
  5  6  1  0  0  0
  6  7  1  0  0  0
  7  8  1  0  0  0
  8  9  1  0  0  0
  9 10  1  0  0  0
 10 11  1  0  0  0
M  END
> <minimizedAffinity>
-6.55767

> <CNNscore>
0.8383577466

> <CNNaffinity>
6.6127028465

> <CNN_VS>
5.5438108444

> <CNNaffinity_variance>
0.4396622777

$$$$
/media/chris/experiments/cd1a-new-docking/inputs/ligands/4x6d_1_ligand.pdb


 21 20  0  0  0  0  0  0  0  0999 V2000
  -47.1722   58.3078   64.6843 C   0  0  0  0  0  0  0  0  0  0  0  0
  -47.7355   59.4763   65.4546 C   0  0  0  0  0  0  0  0  0  0  0  0
  -47.8498   60.7917   64.8099 C   0  0  0  0  0  0  0  0  0  0  0  0
  -48.8902   61.0274   63.7378 C   0  0  0  0  0  0  0  0  0  0  0  0
  -50.2683   60.5904   64.2328 C   0  0  0  0  0  0  0  0  0  0  0  0
  -51.0935   59.8788   63.1640 C   0  0  0  0  0  0  0  0  0  0  0  0
  -50.6585   58.4207   62.9943 C   0  0  0  0  0  0  0  0  0  0  0  0
  -50.6796   57.9050   61.5503 C   0  0  0  0  0  0  0  0  0  0  0  0
  -49.2728   57.5793   61.0310 C   0  0  0  0  0  0  0  0  0  0  0  0
  -48.7079   58.6787   60.1278 C   0  0  0  0  0  0  0  0  0  0  0  0
  -47.8075   58.1439   59.0077 C   0  0  0  0  0  0  0  0  0  0  0  0
  -46.4117   57.4341   65.6688 C   0  0  0  0  0  0  0  0  0  0  0  0
  -45.2864   58.1952   66.3465 C   0  0  0  0  0  0  0  0  0  0  0  0
  -43.9419   57.5127   66.1130 C   0  0  0  0  0  0  0  0  0  0  0  0
  -42.8040   58.4618   66.4621 C   0  0  0  0  0  0  0  0  0  0  0  0
  -42.1113   58.9662   65.2058 C   0  0  0  0  0  0  0  0  0  0  0  0
  -40.7539   59.5791   65.5349 C   0  0  0  0  0  0  0  0  0  0  0  0
  -40.8015   61.0774   65.3072 C   0  0  0  0  0  0  0  0  0  0  0  0
  -40.2553   61.8581   66.1281 O   0  0  0  0  0  0  0  0  0  0  0  0
  -41.3900   61.5499   64.3005 O   0  0  0  0  0  0  0  0  0  0  0  0
  -41.7994   60.9749   63.6843 H   0  0  0  0  0  0  0  0  0  0  0  0
 18 19  2  0  0  0
 18 17  1  0  0  0
 18 20  1  0  0  0
 17 16  1  0  0  0
 20 21  1  0  0  0
 16 15  1  0  0  0
 15 14  1  0  0  0
 14 13  1  0  0  0
 13 12  1  0  0  0
 12  1  1  0  0  0
  1  2  1  0  0  0
  2  3  1  0  0  0
  3  4  1  0  0  0
  4  5  1  0  0  0
  5  6  1  0  0  0
  6  7  1  0  0  0
  7  8  1  0  0  0
  8  9  1  0  0  0
  9 10  1  0  0  0
 10 11  1  0  0  0
M  END
> <minimizedAffinity>
-6.67157

> <CNNscore>
0.8058315516

> <CNNaffinity>
6.6254324913

> <CNN_VS>
5.3389825821

> <CNNaffinity_variance>
0.7146843076

$$$$
/media/chris/experiments/cd1a-new-docking/inputs/ligands/4x6d_1_ligand.pdb


 21 20  0  0  0  0  0  0  0  0999 V2000
  -49.2209   60.1466   63.0924 C   0  0  0  0  0  0  0  0  0  0  0  0
  -48.4153   58.9491   63.5314 C   0  0  0  0  0  0  0  0  0  0  0  0
  -48.6338   58.3677   64.8631 C   0  0  0  0  0  0  0  0  0  0  0  0
  -47.5645   57.5138   65.5070 C   0  0  0  0  0  0  0  0  0  0  0  0
  -46.3770   58.3798   65.9257 C   0  0  0  0  0  0  0  0  0  0  0  0
  -45.0554   57.9257   65.3118 C   0  0  0  0  0  0  0  0  0  0  0  0
  -43.9613   58.9827   65.4844 C   0  0  0  0  0  0  0  0  0  0  0  0
  -43.5356   59.6880   64.1909 C   0  0  0  0  0  0  0  0  0  0  0  0
  -42.4228   60.7167   64.4315 C   0  0  0  0  0  0  0  0  0  0  0  0
  -41.7134   61.1317   63.1400 C   0  0  0  0  0  0  0  0  0  0  0  0
  -42.5204   62.1234   62.2934 C   0  0  0  0  0  0  0  0  0  0  0  0
  -49.8608   59.8034   61.7567 C   0  0  0  0  0  0  0  0  0  0  0  0
  -50.1553   58.3189   61.6369 C   0  0  0  0  0  0  0  0  0  0  0  0
  -49.8742   57.8146   60.2246 C   0  0  0  0  0  0  0  0  0  0  0  0
  -48.3909   57.5140   60.0603 C   0  0  0  0  0  0  0  0  0  0  0  0
  -47.8324   58.1922   58.8191 C   0  0  0  0  0  0  0  0  0  0  0  0
  -46.8815   57.2663   58.0676 C   0  0  0  0  0  0  0  0  0  0  0  0
  -47.6671   56.4071   57.0960 C   0  0  0  0  0  0  0  0  0  0  0  0
  -48.0712   56.8928   56.0086 O   0  0  0  0  0  0  0  0  0  0  0  0
  -47.9238   55.2066   57.3716 O   0  0  0  0  0  0  0  0  0  0  0  0
  -47.6262   54.8375   58.1797 H   0  0  0  0  0  0  0  0  0  0  0  0
 18 19  2  0  0  0
 18 17  1  0  0  0
 18 20  1  0  0  0
 17 16  1  0  0  0
 20 21  1  0  0  0
 16 15  1  0  0  0
 15 14  1  0  0  0
 14 13  1  0  0  0
 13 12  1  0  0  0
 12  1  1  0  0  0
  1  2  1  0  0  0
  2  3  1  0  0  0
  3  4  1  0  0  0
  4  5  1  0  0  0
  5  6  1  0  0  0
  6  7  1  0  0  0
  7  8  1  0  0  0
  8  9  1  0  0  0
  9 10  1  0  0  0
 10 11  1  0  0  0
M  END
> <minimizedAffinity>
-6.71721

> <CNNscore>
0.7787233591

> <CNNaffinity>
6.8261194229

> <CNN_VS>
5.3156585693

> <CNNaffinity_variance>
0.6451466084

$$$$
/media/chris/experiments/cd1a-new-docking/inputs/ligands/4x6d_1_ligand.pdb


 21 20  0  0  0  0  0  0  0  0999 V2000
  -49.9902   59.0429   65.3714 C   0  0  0  0  0  0  0  0  0  0  0  0
  -50.8087   60.0305   64.5774 C   0  0  0  0  0  0  0  0  0  0  0  0
  -51.0992   59.7696   63.1609 C   0  0  0  0  0  0  0  0  0  0  0  0
  -50.1246   60.2058   62.0897 C   0  0  0  0  0  0  0  0  0  0  0  0
  -49.1563   59.0701   61.7615 C   0  0  0  0  0  0  0  0  0  0  0  0
  -48.8775   58.9304   60.2674 C   0  0  0  0  0  0  0  0  0  0  0  0
  -49.4746   57.6393   59.7011 C   0  0  0  0  0  0  0  0  0  0  0  0
  -48.4512   56.6545   59.1226 C   0  0  0  0  0  0  0  0  0  0  0  0
  -47.3251   57.3689   58.3636 C   0  0  0  0  0  0  0  0  0  0  0  0
  -47.3119   57.0297   56.8708 C   0  0  0  0  0  0  0  0  0  0  0  0
  -47.5062   55.5359   56.5839 C   0  0  0  0  0  0  0  0  0  0  0  0
  -48.8552   59.8120   66.0283 C   0  0  0  0  0  0  0  0  0  0  0  0
  -47.8780   60.3603   65.0040 C   0  0  0  0  0  0  0  0  0  0  0  0
  -46.4801   59.7863   65.2150 C   0  0  0  0  0  0  0  0  0  0  0  0
  -46.4168   58.3559   64.6978 C   0  0  0  0  0  0  0  0  0  0  0  0
  -45.5829   57.4803   65.6200 C   0  0  0  0  0  0  0  0  0  0  0  0
  -44.2122   57.1941   65.0152 C   0  0  0  0  0  0  0  0  0  0  0  0
  -43.1563   58.0110   65.7342 C   0  0  0  0  0  0  0  0  0  0  0  0
  -43.4722   58.7184   66.7249 O   0  0  0  0  0  0  0  0  0  0  0  0
  -41.9605   57.9909   65.3434 O   0  0  0  0  0  0  0  0  0  0  0  0
  -41.7173   57.4664   64.6061 H   0  0  0  0  0  0  0  0  0  0  0  0
 18 19  2  0  0  0
 18 17  1  0  0  0
 18 20  1  0  0  0
 17 16  1  0  0  0
 20 21  1  0  0  0
 16 15  1  0  0  0
 15 14  1  0  0  0
 14 13  1  0  0  0
 13 12  1  0  0  0
 12  1  1  0  0  0
  1  2  1  0  0  0
  2  3  1  0  0  0
  3  4  1  0  0  0
  4  5  1  0  0  0
  5  6  1  0  0  0
  6  7  1  0  0  0
  7  8  1  0  0  0
  8  9  1  0  0  0
  9 10  1  0  0  0
 10 11  1  0  0  0
M  END
> <minimizedAffinity>
-6.97753

> <CNNscore>
0.7697715163

> <CNNaffinity>
6.7134904861

> <CNN_VS>
5.1678538322

> <CNNaffinity_variance>
0.6474840641

$$$$
/media/chris/experiments/cd1a-new-docking/inputs/ligands/4x6d_1_ligand.pdb


 21 20  0  0  0  0  0  0  0  0999 V2000
  -44.4532   59.4652   66.4108 C   0  0  0  0  0  0  0  0  0  0  0  0
  -45.8772   58.9691   66.4557 C   0  0  0  0  0  0  0  0  0  0  0  0
  -46.3909   58.1186   65.3733 C   0  0  0  0  0  0  0  0  0  0  0  0
  -47.8745   57.8500   65.2535 C   0  0  0  0  0  0  0  0  0  0  0  0
  -48.4821   58.7193   64.1533 C   0  0  0  0  0  0  0  0  0  0  0  0
  -49.9978   58.5770   64.0427 C   0  0  0  0  0  0  0  0  0  0  0  0
  -50.5282   59.1916   62.7446 C   0  0  0  0  0  0  0  0  0  0  0  0
  -49.5843   60.1968   62.0737 C   0  0  0  0  0  0  0  0  0  0  0  0
  -49.2717   59.8166   60.6203 C   0  0  0  0  0  0  0  0  0  0  0  0
  -48.6835   58.4091   60.4918 C   0  0  0  0  0  0  0  0  0  0  0  0
  -47.9373   58.1789   59.1721 C   0  0  0  0  0  0  0  0  0  0  0  0
  -44.2694   60.2117   65.0994 C   0  0  0  0  0  0  0  0  0  0  0  0
  -42.8429   60.1131   64.5889 C   0  0  0  0  0  0  0  0  0  0  0  0
  -42.1643   58.8435   65.0945 C   0  0  0  0  0  0  0  0  0  0  0  0
  -40.7920   59.1737   65.6650 C   0  0  0  0  0  0  0  0  0  0  0  0
  -39.6931   58.8337   64.6705 C   0  0  0  0  0  0  0  0  0  0  0  0
  -38.5214   59.8025   64.7934 C   0  0  0  0  0  0  0  0  0  0  0  0
  -38.2050   60.3960   63.4344 C   0  0  0  0  0  0  0  0  0  0  0  0
  -38.9098   60.0981   62.4363 O   0  0  0  0  0  0  0  0  0  0  0  0
  -37.2350   61.1850   63.2945 O   0  0  0  0  0  0  0  0  0  0  0  0
  -36.7052   61.4117   64.0333 H   0  0  0  0  0  0  0  0  0  0  0  0
 18 19  2  0  0  0
 18 17  1  0  0  0
 18 20  1  0  0  0
 17 16  1  0  0  0
 20 21  1  0  0  0
 16 15  1  0  0  0
 15 14  1  0  0  0
 14 13  1  0  0  0
 13 12  1  0  0  0
 12  1  1  0  0  0
  1  2  1  0  0  0
  2  3  1  0  0  0
  3  4  1  0  0  0
  4  5  1  0  0  0
  5  6  1  0  0  0
  6  7  1  0  0  0
  7  8  1  0  0  0
  8  9  1  0  0  0
  9 10  1  0  0  0
 10 11  1  0  0  0
M  END
> <minimizedAffinity>
-6.39263

> <CNNscore>
0.7346385717

> <CNNaffinity>
6.5446424484

> <CNN_VS>
4.8079466820

> <CNNaffinity_variance>
0.4697900414

$$$$
