/media/chris/experiments/cd1a-new-docking/inputs/ligands/4x6d_1_ligand.pdb


 21 20  0  0  0  0  0  0  0  0999 V2000
  -46.8174   57.0720   65.7718 C   0  0  0  0  0  0  0  0  0  0  0  0
  -47.4565   58.2615   65.0992 C   0  0  0  0  0  0  0  0  0  0  0  0
  -48.5049   58.0566   64.0903 C   0  0  0  0  0  0  0  0  0  0  0  0
  -49.8796   58.6558   64.2868 C   0  0  0  0  0  0  0  0  0  0  0  0
  -50.5749   58.8375   62.9381 C   0  0  0  0  0  0  0  0  0  0  0  0
  -50.2584   60.1747   62.2736 C   0  0  0  0  0  0  0  0  0  0  0  0
  -49.4566   59.9869   60.9830 C   0  0  0  0  0  0  0  0  0  0  0  0
  -49.5492   58.5871   60.3637 C   0  0  0  0  0  0  0  0  0  0  0  0
  -48.1806   58.0641   59.9075 C   0  0  0  0  0  0  0  0  0  0  0  0
  -48.1910   57.5685   58.4591 C   0  0  0  0  0  0  0  0  0  0  0  0
  -46.9389   57.9688   57.6695 C   0  0  0  0  0  0  0  0  0  0  0  0
  -45.3574   57.4157   66.0196 C   0  0  0  0  0  0  0  0  0  0  0  0
  -44.6736   57.9152   64.7594 C   0  0  0  0  0  0  0  0  0  0  0  0
  -43.3831   58.6583   65.0915 C   0  0  0  0  0  0  0  0  0  0  0  0
  -43.6899   59.8986   65.9190 C   0  0  0  0  0  0  0  0  0  0  0  0
  -42.5519   60.2077   66.8790 C   0  0  0  0  0  0  0  0  0  0  0  0
  -41.2105   59.7684   66.3010 C   0  0  0  0  0  0  0  0  0  0  0  0
  -40.3767   60.9886   65.9618 C   0  0  0  0  0  0  0  0  0  0  0  0
  -40.8886   62.1363   66.0112 O   0  0  0  0  0  0  0  0  0  0  0  0
  -39.1711   60.8622   65.6248 O   0  0  0  0  0  0  0  0  0  0  0  0
  -38.7824   60.0105   65.5855 H   0  0  0  0  0  0  0  0  0  0  0  0
 18 19  2  0  0  0
 18 17  1  0  0  0
 18 20  1  0  0  0
 17 16  1  0  0  0
 20 21  1  0  0  0
 16 15  1  0  0  0
 15 14  1  0  0  0
 14 13  1  0  0  0
 13 12  1  0  0  0
 12  1  1  0  0  0
  1  2  1  0  0  0
  2  3  1  0  0  0
  3  4  1  0  0  0
  4  5  1  0  0  0
  5  6  1  0  0  0
  6  7  1  0  0  0
  7  8  1  0  0  0
  8  9  1  0  0  0
  9 10  1  0  0  0
 10 11  1  0  0  0
M  END
> <minimizedAffinity>
-7.06811

> <CNNscore>
0.9285978079

> <CNNaffinity>
6.9647231102

> <CNN_VS>
6.4674267769

> <CNNaffinity_variance>
0.8070875406

$$$$
/media/chris/experiments/cd1a-new-docking/inputs/ligands/4x6d_1_ligand.pdb


 21 20  0  0  0  0  0  0  0  0999 V2000
  -47.1980   58.6176   65.3154 C   0  0  0  0  0  0  0  0  0  0  0  0
  -48.5192   58.4289   64.6120 C   0  0  0  0  0  0  0  0  0  0  0  0
  -48.6080   58.6175   63.1575 C   0  0  0  0  0  0  0  0  0  0  0  0
  -49.7325   59.4349   62.5620 C   0  0  0  0  0  0  0  0  0  0  0  0
  -50.8821   58.5222   62.1370 C   0  0  0  0  0  0  0  0  0  0  0  0
  -50.4403   57.3874   61.2167 C   0  0  0  0  0  0  0  0  0  0  0  0
  -50.1870   57.8841   59.7909 C   0  0  0  0  0  0  0  0  0  0  0  0
  -49.1365   57.0879   59.0073 C   0  0  0  0  0  0  0  0  0  0  0  0
  -47.7337   57.6962   59.1368 C   0  0  0  0  0  0  0  0  0  0  0  0
  -47.1240   58.0674   57.7826 C   0  0  0  0  0  0  0  0  0  0  0  0
  -47.5342   57.1191   56.6495 C   0  0  0  0  0  0  0  0  0  0  0  0
  -46.8047   60.0785   65.1672 C   0  0  0  0  0  0  0  0  0  0  0  0
  -45.2988   60.2516   65.0809 C   0  0  0  0  0  0  0  0  0  0  0  0
  -44.5742   58.9670   65.4716 C   0  0  0  0  0  0  0  0  0  0  0  0
  -43.2225   58.8945   64.7752 C   0  0  0  0  0  0  0  0  0  0  0  0
  -42.3721   60.1099   65.1097 C   0  0  0  0  0  0  0  0  0  0  0  0
  -41.0420   59.6959   65.7310 C   0  0  0  0  0  0  0  0  0  0  0  0
  -40.1479   60.9115   65.8799 C   0  0  0  0  0  0  0  0  0  0  0  0
  -40.6521   62.0429   66.0977 O   0  0  0  0  0  0  0  0  0  0  0  0
  -38.8986   60.7987   65.7822 O   0  0  0  0  0  0  0  0  0  0  0  0
  -38.5152   59.9592   65.6200 H   0  0  0  0  0  0  0  0  0  0  0  0
 18 19  2  0  0  0
 18 17  1  0  0  0
 18 20  1  0  0  0
 17 16  1  0  0  0
 20 21  1  0  0  0
 16 15  1  0  0  0
 15 14  1  0  0  0
 14 13  1  0  0  0
 13 12  1  0  0  0
 12  1  1  0  0  0
  1  2  1  0  0  0
  2  3  1  0  0  0
  3  4  1  0  0  0
  4  5  1  0  0  0
  5  6  1  0  0  0
  6  7  1  0  0  0
  7  8  1  0  0  0
  8  9  1  0  0  0
  9 10  1  0  0  0
 10 11  1  0  0  0
M  END
> <minimizedAffinity>
-7.05157

> <CNNscore>
0.9084815383

> <CNNaffinity>
6.8569154739

> <CNN_VS>
6.2293810844

> <CNNaffinity_variance>
0.6362558603

$$$$
/media/chris/experiments/cd1a-new-docking/inputs/ligands/4x6d_1_ligand.pdb


 21 20  0  0  0  0  0  0  0  0999 V2000
  -46.9940   60.2983   64.9761 C   0  0  0  0  0  0  0  0  0  0  0  0
  -48.0351   60.2574   66.0671 C   0  0  0  0  0  0  0  0  0  0  0  0
  -49.1106   59.2575   66.0160 C   0  0  0  0  0  0  0  0  0  0  0  0
  -49.7026   58.8418   64.6878 C   0  0  0  0  0  0  0  0  0  0  0  0
  -50.7866   59.8302   64.2594 C   0  0  0  0  0  0  0  0  0  0  0  0
  -50.9190   59.9582   62.7442 C   0  0  0  0  0  0  0  0  0  0  0  0
  -49.6392   60.5108   62.1113 C   0  0  0  0  0  0  0  0  0  0  0  0
  -49.2377   59.8511   60.7864 C   0  0  0  0  0  0  0  0  0  0  0  0
  -49.3045   58.3198   60.8585 C   0  0  0  0  0  0  0  0  0  0  0  0
  -50.0080   57.7021   59.6473 C   0  0  0  0  0  0  0  0  0  0  0  0
  -49.0417   57.2611   58.5412 C   0  0  0  0  0  0  0  0  0  0  0  0
  -45.9995   59.1816   65.2499 C   0  0  0  0  0  0  0  0  0  0  0  0
  -45.4150   59.2768   66.6480 C   0  0  0  0  0  0  0  0  0  0  0  0
  -43.9421   59.6721   66.6027 C   0  0  0  0  0  0  0  0  0  0  0  0
  -43.2031   58.8258   65.5755 C   0  0  0  0  0  0  0  0  0  0  0  0
  -41.7139   58.7787   65.8791 C   0  0  0  0  0  0  0  0  0  0  0  0
  -41.1411   60.1831   66.0404 C   0  0  0  0  0  0  0  0  0  0  0  0
  -39.6591   60.1699   65.7198 C   0  0  0  0  0  0  0  0  0  0  0  0
  -39.1656   59.2228   65.0555 O   0  0  0  0  0  0  0  0  0  0  0  0
  -38.9131   61.1012   66.1186 O   0  0  0  0  0  0  0  0  0  0  0  0
  -39.2731   61.8104   66.6140 H   0  0  0  0  0  0  0  0  0  0  0  0
 18 19  2  0  0  0
 18 17  1  0  0  0
 18 20  1  0  0  0
 17 16  1  0  0  0
 20 21  1  0  0  0
 16 15  1  0  0  0
 15 14  1  0  0  0
 14 13  1  0  0  0
 13 12  1  0  0  0
 12  1  1  0  0  0
  1  2  1  0  0  0
  2  3  1  0  0  0
  3  4  1  0  0  0
  4  5  1  0  0  0
  5  6  1  0  0  0
  6  7  1  0  0  0
  7  8  1  0  0  0
  8  9  1  0  0  0
  9 10  1  0  0  0
 10 11  1  0  0  0
M  END
> <minimizedAffinity>
-6.55032

> <CNNscore>
0.7633744478

> <CNNaffinity>
6.5223441124

> <CNN_VS>
4.9789910316

> <CNNaffinity_variance>
0.4916344285

$$$$
/media/chris/experiments/cd1a-new-docking/inputs/ligands/4x6d_1_ligand.pdb


 21 20  0  0  0  0  0  0  0  0999 V2000
  -50.3223   59.4293   65.5316 C   0  0  0  0  0  0  0  0  0  0  0  0
  -50.6829   60.3678   64.4069 C   0  0  0  0  0  0  0  0  0  0  0  0
  -50.9224   59.8365   63.0580 C   0  0  0  0  0  0  0  0  0  0  0  0
  -50.5608   58.4058   62.7269 C   0  0  0  0  0  0  0  0  0  0  0  0
  -49.1907   58.3492   62.0523 C   0  0  0  0  0  0  0  0  0  0  0  0
  -49.2027   57.5878   60.7294 C   0  0  0  0  0  0  0  0  0  0  0  0
  -48.3525   58.2898   59.6673 C   0  0  0  0  0  0  0  0  0  0  0  0
  -47.2999   57.4017   58.9927 C   0  0  0  0  0  0  0  0  0  0  0  0
  -46.9593   57.8820   57.5757 C   0  0  0  0  0  0  0  0  0  0  0  0
  -47.4249   56.9047   56.4934 C   0  0  0  0  0  0  0  0  0  0  0  0
  -47.7766   55.5150   57.0380 C   0  0  0  0  0  0  0  0  0  0  0  0
  -48.8285   59.5640   65.7794 C   0  0  0  0  0  0  0  0  0  0  0  0
  -48.0838   58.2829   65.4484 C   0  0  0  0  0  0  0  0  0  0  0  0
  -46.6564   58.5773   64.9972 C   0  0  0  0  0  0  0  0  0  0  0  0
  -46.3073   60.0324   65.2770 C   0  0  0  0  0  0  0  0  0  0  0  0
  -44.8169   60.2778   65.1022 C   0  0  0  0  0  0  0  0  0  0  0  0
  -44.0161   59.0058   65.3618 C   0  0  0  0  0  0  0  0  0  0  0  0
  -42.8523   59.3145   66.2834 C   0  0  0  0  0  0  0  0  0  0  0  0
  -43.0228   60.0462   67.2919 O   0  0  0  0  0  0  0  0  0  0  0  0
  -41.7093   58.8459   66.0443 O   0  0  0  0  0  0  0  0  0  0  0  0
  -41.5741   58.2999   65.2949 H   0  0  0  0  0  0  0  0  0  0  0  0
 18 19  2  0  0  0
 18 17  1  0  0  0
 18 20  1  0  0  0
 17 16  1  0  0  0
 20 21  1  0  0  0
 16 15  1  0  0  0
 15 14  1  0  0  0
 14 13  1  0  0  0
 13 12  1  0  0  0
 12  1  1  0  0  0
  1  2  1  0  0  0
  2  3  1  0  0  0
  3  4  1  0  0  0
  4  5  1  0  0  0
  5  6  1  0  0  0
  6  7  1  0  0  0
  7  8  1  0  0  0
  8  9  1  0  0  0
  9 10  1  0  0  0
 10 11  1  0  0  0
M  END
> <minimizedAffinity>
-7.18121

> <CNNscore>
0.7589806318

> <CNNaffinity>
6.6715974808

> <CNN_VS>
5.0636134148

> <CNNaffinity_variance>
0.4402509332

$$$$
/media/chris/experiments/cd1a-new-docking/inputs/ligands/4x6d_1_ligand.pdb


 21 20  0  0  0  0  0  0  0  0999 V2000
  -49.9562   58.4812   64.0205 C   0  0  0  0  0  0  0  0  0  0  0  0
  -48.7169   58.9661   64.7310 C   0  0  0  0  0  0  0  0  0  0  0  0
  -47.9662   58.0506   65.6012 C   0  0  0  0  0  0  0  0  0  0  0  0
  -46.9769   58.5948   66.6075 C   0  0  0  0  0  0  0  0  0  0  0  0
  -45.6883   57.7737   66.5794 C   0  0  0  0  0  0  0  0  0  0  0  0
  -45.4480   57.0773   65.2426 C   0  0  0  0  0  0  0  0  0  0  0  0
  -44.1459   57.5470   64.5884 C   0  0  0  0  0  0  0  0  0  0  0  0
  -43.5100   58.7847   65.2327 C   0  0  0  0  0  0  0  0  0  0  0  0
  -42.2100   58.4477   65.9752 C   0  0  0  0  0  0  0  0  0  0  0  0
  -42.0001   59.3132   67.2203 C   0  0  0  0  0  0  0  0  0  0  0  0
  -41.9896   60.8173   66.9218 C   0  0  0  0  0  0  0  0  0  0  0  0
  -49.5802   58.2194   62.5709 C   0  0  0  0  0  0  0  0  0  0  0  0
  -49.8206   59.4374   61.6969 C   0  0  0  0  0  0  0  0  0  0  0  0
  -48.9758   59.3790   60.4277 C   0  0  0  0  0  0  0  0  0  0  0  0
  -48.9982   57.9720   59.8469 C   0  0  0  0  0  0  0  0  0  0  0  0
  -47.5907   57.4917   59.5297 C   0  0  0  0  0  0  0  0  0  0  0  0
  -47.2886   57.6204   58.0402 C   0  0  0  0  0  0  0  0  0  0  0  0
  -47.8669   56.4316   57.2975 C   0  0  0  0  0  0  0  0  0  0  0  0
  -47.7559   55.2738   57.7759 O   0  0  0  0  0  0  0  0  0  0  0  0
  -48.4565   56.5934   56.1978 O   0  0  0  0  0  0  0  0  0  0  0  0
  -48.5433   57.4529   55.8347 H   0  0  0  0  0  0  0  0  0  0  0  0
 18 19  2  0  0  0
 18 17  1  0  0  0
 18 20  1  0  0  0
 17 16  1  0  0  0
 20 21  1  0  0  0
 16 15  1  0  0  0
 15 14  1  0  0  0
 14 13  1  0  0  0
 13 12  1  0  0  0
 12  1  1  0  0  0
  1  2  1  0  0  0
  2  3  1  0  0  0
  3  4  1  0  0  0
  4  5  1  0  0  0
  5  6  1  0  0  0
  6  7  1  0  0  0
  7  8  1  0  0  0
  8  9  1  0  0  0
  9 10  1  0  0  0
 10 11  1  0  0  0
M  END
> <minimizedAffinity>
-6.78478

> <CNNscore>
0.7477419376

> <CNNaffinity>
6.7910857201

> <CNN_VS>
5.0779795647

> <CNNaffinity_variance>
0.4411829114

$$$$
/media/chris/experiments/cd1a-new-docking/inputs/ligands/4x6d_1_ligand.pdb


 21 20  0  0  0  0  0  0  0  0999 V2000
  -49.0293   58.1948   63.2314 C   0  0  0  0  0  0  0  0  0  0  0  0
  -48.5906   59.3014   64.1581 C   0  0  0  0  0  0  0  0  0  0  0  0
  -47.8204   58.9815   65.3678 C   0  0  0  0  0  0  0  0  0  0  0  0
  -46.7685   59.9410   65.8779 C   0  0  0  0  0  0  0  0  0  0  0  0
  -45.5101   59.8535   65.0151 C   0  0  0  0  0  0  0  0  0  0  0  0
  -44.2236   59.7840   65.8335 C   0  0  0  0  0  0  0  0  0  0  0  0
  -43.0156   59.4434   64.9567 C   0  0  0  0  0  0  0  0  0  0  0  0
  -41.7728   60.3062   65.2070 C   0  0  0  0  0  0  0  0  0  0  0  0
  -41.3976   61.1503   63.9818 C   0  0  0  0  0  0  0  0  0  0  0  0
  -42.6169   61.5617   63.1526 C   0  0  0  0  0  0  0  0  0  0  0  0
  -42.2592   62.0451   61.7419 C   0  0  0  0  0  0  0  0  0  0  0  0
  -50.4880   58.4416   62.8816 C   0  0  0  0  0  0  0  0  0  0  0  0
  -50.8136   57.9905   61.4689 C   0  0  0  0  0  0  0  0  0  0  0  0
  -49.6677   57.1784   60.8729 C   0  0  0  0  0  0  0  0  0  0  0  0
  -49.3431   57.6786   59.4723 C   0  0  0  0  0  0  0  0  0  0  0  0
  -47.8406   57.7971   59.2712 C   0  0  0  0  0  0  0  0  0  0  0  0
  -47.4774   57.7351   57.7911 C   0  0  0  0  0  0  0  0  0  0  0  0
  -47.8943   56.3941   57.2190 C   0  0  0  0  0  0  0  0  0  0  0  0
  -47.5029   55.3282   57.7597 O   0  0  0  0  0  0  0  0  0  0  0  0
  -48.6290   56.3377   56.1992 O   0  0  0  0  0  0  0  0  0  0  0  0
  -48.9248   57.1274   55.7906 H   0  0  0  0  0  0  0  0  0  0  0  0
 18 19  2  0  0  0
 18 17  1  0  0  0
 18 20  1  0  0  0
 17 16  1  0  0  0
 20 21  1  0  0  0
 16 15  1  0  0  0
 15 14  1  0  0  0
 14 13  1  0  0  0
 13 12  1  0  0  0
 12  1  1  0  0  0
  1  2  1  0  0  0
  2  3  1  0  0  0
  3  4  1  0  0  0
  4  5  1  0  0  0
  5  6  1  0  0  0
  6  7  1  0  0  0
  7  8  1  0  0  0
  8  9  1  0  0  0
  9 10  1  0  0  0
 10 11  1  0  0  0
M  END
> <minimizedAffinity>
-6.93157

> <CNNscore>
0.7366788387

> <CNNaffinity>
6.6732048988

> <CNN_VS>
4.9160089493

> <CNNaffinity_variance>
0.6418673992

$$$$
/media/chris/experiments/cd1a-new-docking/inputs/ligands/4x6d_1_ligand.pdb


 21 20  0  0  0  0  0  0  0  0999 V2000
  -48.0244   58.7189   65.9088 C   0  0  0  0  0  0  0  0  0  0  0  0
  -48.9817   59.8822   65.9877 C   0  0  0  0  0  0  0  0  0  0  0  0
  -50.3899   59.6987   65.6105 C   0  0  0  0  0  0  0  0  0  0  0  0
  -50.9585   60.4236   64.4111 C   0  0  0  0  0  0  0  0  0  0  0  0
  -50.3218   59.8983   63.1249 C   0  0  0  0  0  0  0  0  0  0  0  0
  -51.0123   58.6519   62.5777 C   0  0  0  0  0  0  0  0  0  0  0  0
  -50.1890   57.9930   61.4677 C   0  0  0  0  0  0  0  0  0  0  0  0
  -48.7416   58.4877   61.3575 C   0  0  0  0  0  0  0  0  0  0  0  0
  -48.2863   58.6254   59.8987 C   0  0  0  0  0  0  0  0  0  0  0  0
  -48.1648   57.2749   59.1882 C   0  0  0  0  0  0  0  0  0  0  0  0
  -47.8402   57.3994   57.6947 C   0  0  0  0  0  0  0  0  0  0  0  0
  -46.9869   59.0506   64.8484 C   0  0  0  0  0  0  0  0  0  0  0  0
  -46.3009   60.3765   65.1254 C   0  0  0  0  0  0  0  0  0  0  0  0
  -44.7831   60.2341   65.0629 C   0  0  0  0  0  0  0  0  0  0  0  0
  -44.2492   59.7202   66.3927 C   0  0  0  0  0  0  0  0  0  0  0  0
  -42.8269   59.2031   66.2449 C   0  0  0  0  0  0  0  0  0  0  0  0
  -41.8295   60.1359   66.9244 C   0  0  0  0  0  0  0  0  0  0  0  0
  -41.1155   60.9693   65.8781 C   0  0  0  0  0  0  0  0  0  0  0  0
  -41.0848   60.5873   64.6802 O   0  0  0  0  0  0  0  0  0  0  0  0
  -40.5459   62.0440   66.2002 O   0  0  0  0  0  0  0  0  0  0  0  0
  -40.5643   62.3354   67.0905 H   0  0  0  0  0  0  0  0  0  0  0  0
 18 19  2  0  0  0
 18 17  1  0  0  0
 18 20  1  0  0  0
 17 16  1  0  0  0
 20 21  1  0  0  0
 16 15  1  0  0  0
 15 14  1  0  0  0
 14 13  1  0  0  0
 13 12  1  0  0  0
 12  1  1  0  0  0
  1  2  1  0  0  0
  2  3  1  0  0  0
  3  4  1  0  0  0
  4  5  1  0  0  0
  5  6  1  0  0  0
  6  7  1  0  0  0
  7  8  1  0  0  0
  8  9  1  0  0  0
  9 10  1  0  0  0
 10 11  1  0  0  0
M  END
> <minimizedAffinity>
-6.87434

> <CNNscore>
0.7207363248

> <CNNaffinity>
6.4925093651

> <CNN_VS>
4.6793875694

> <CNNaffinity_variance>
0.4274497032

$$$$
/media/chris/experiments/cd1a-new-docking/inputs/ligands/4x6d_1_ligand.pdb


 21 20  0  0  0  0  0  0  0  0999 V2000
  -50.5397   58.2436   62.6539 C   0  0  0  0  0  0  0  0  0  0  0  0
  -51.1766   59.5756   62.9640 C   0  0  0  0  0  0  0  0  0  0  0  0
  -51.0316   60.1627   64.3031 C   0  0  0  0  0  0  0  0  0  0  0  0
  -50.0314   59.5900   65.2824 C   0  0  0  0  0  0  0  0  0  0  0  0
  -48.6268   60.1002   64.9629 C   0  0  0  0  0  0  0  0  0  0  0  0
  -47.7798   60.3495   66.2080 C   0  0  0  0  0  0  0  0  0  0  0  0
  -46.2928   60.1065   65.9360 C   0  0  0  0  0  0  0  0  0  0  0  0
  -45.5899   59.2017   66.9552 C   0  0  0  0  0  0  0  0  0  0  0  0
  -44.1242   58.9405   66.5836 C   0  0  0  0  0  0  0  0  0  0  0  0
  -43.9195   57.5818   65.9087 C   0  0  0  0  0  0  0  0  0  0  0  0
  -44.2170   57.5981   64.4044 C   0  0  0  0  0  0  0  0  0  0  0  0
  -51.1600   57.7283   61.3652 C   0  0  0  0  0  0  0  0  0  0  0  0
  -50.1426   57.0094   60.4974 C   0  0  0  0  0  0  0  0  0  0  0  0
  -49.6714   57.8987   59.3507 C   0  0  0  0  0  0  0  0  0  0  0  0
  -48.1797   58.1737   59.4788 C   0  0  0  0  0  0  0  0  0  0  0  0
  -47.4872   58.0589   58.1300 C   0  0  0  0  0  0  0  0  0  0  0  0
  -48.2221   57.0837   57.2160 C   0  0  0  0  0  0  0  0  0  0  0  0
  -47.5409   55.7298   57.2611 C   0  0  0  0  0  0  0  0  0  0  0  0
  -47.3009   55.1806   58.3668 O   0  0  0  0  0  0  0  0  0  0  0  0
  -47.2074   55.1491   56.1959 O   0  0  0  0  0  0  0  0  0  0  0  0
  -47.3827   55.5517   55.3682 H   0  0  0  0  0  0  0  0  0  0  0  0
 18 19  2  0  0  0
 18 17  1  0  0  0
 18 20  1  0  0  0
 17 16  1  0  0  0
 20 21  1  0  0  0
 16 15  1  0  0  0
 15 14  1  0  0  0
 14 13  1  0  0  0
 13 12  1  0  0  0
 12  1  1  0  0  0
  1  2  1  0  0  0
  2  3  1  0  0  0
  3  4  1  0  0  0
  4  5  1  0  0  0
  5  6  1  0  0  0
  6  7  1  0  0  0
  7  8  1  0  0  0
  8  9  1  0  0  0
  9 10  1  0  0  0
 10 11  1  0  0  0
M  END
> <minimizedAffinity>
-7.59896

> <CNNscore>
0.6820058823

> <CNNaffinity>
6.6459016800

> <CNN_VS>
4.5325441360

> <CNNaffinity_variance>
0.2227163315

$$$$
/media/chris/experiments/cd1a-new-docking/inputs/ligands/4x6d_1_ligand.pdb


 21 20  0  0  0  0  0  0  0  0999 V2000
  -36.9252   57.9969   59.7149 C   0  0  0  0  0  0  0  0  0  0  0  0
  -36.3887   58.3279   58.3444 C   0  0  0  0  0  0  0  0  0  0  0  0
  -36.1825   57.2565   57.3602 C   0  0  0  0  0  0  0  0  0  0  0  0
  -35.5714   55.9395   57.7837 C   0  0  0  0  0  0  0  0  0  0  0  0
  -34.0609   56.0900   57.9607 C   0  0  0  0  0  0  0  0  0  0  0  0
  -33.5871   55.7753   59.3771 C   0  0  0  0  0  0  0  0  0  0  0  0
  -33.5539   57.0310   60.2523 C   0  0  0  0  0  0  0  0  0  0  0  0
  -34.0323   56.8251   61.6946 C   0  0  0  0  0  0  0  0  0  0  0  0
  -33.3383   57.7785   62.6765 C   0  0  0  0  0  0  0  0  0  0  0  0
  -34.2975   58.3457   63.7261 C   0  0  0  0  0  0  0  0  0  0  0  0
  -33.6015   58.7526   65.0306 C   0  0  0  0  0  0  0  0  0  0  0  0
  -37.6853   59.2145   60.2156 C   0  0  0  0  0  0  0  0  0  0  0  0
  -38.0594   59.0829   61.6812 C   0  0  0  0  0  0  0  0  0  0  0  0
  -37.6778   57.7094   62.2251 C   0  0  0  0  0  0  0  0  0  0  0  0
  -37.9910   57.6286   63.7126 C   0  0  0  0  0  0  0  0  0  0  0  0
  -37.8585   58.9925   64.3716 C   0  0  0  0  0  0  0  0  0  0  0  0
  -38.9854   59.2319   65.3711 C   0  0  0  0  0  0  0  0  0  0  0  0
  -38.8336   60.6070   65.9919 C   0  0  0  0  0  0  0  0  0  0  0  0
  -37.7347   60.9542   66.4955 O   0  0  0  0  0  0  0  0  0  0  0  0
  -39.8044   61.4072   66.0118 O   0  0  0  0  0  0  0  0  0  0  0  0
  -40.6264   61.1560   65.6387 H   0  0  0  0  0  0  0  0  0  0  0  0
 18 19  2  0  0  0
 18 17  1  0  0  0
 18 20  1  0  0  0
 17 16  1  0  0  0
 20 21  1  0  0  0
 16 15  1  0  0  0
 15 14  1  0  0  0
 14 13  1  0  0  0
 13 12  1  0  0  0
 12  1  1  0  0  0
  1  2  1  0  0  0
  2  3  1  0  0  0
  3  4  1  0  0  0
  4  5  1  0  0  0
  5  6  1  0  0  0
  6  7  1  0  0  0
  7  8  1  0  0  0
  8  9  1  0  0  0
  9 10  1  0  0  0
 10 11  1  0  0  0
M  END
> <minimizedAffinity>
-6.17864

> <CNNscore>
0.6632726192

> <CNNaffinity>
5.9081134796

> <CNN_VS>
3.9186899662

> <CNNaffinity_variance>
0.1800510734

$$$$
