/media/chris/experiments/cd1a-new-docking/inputs/ligands/4x6d_1_ligand.pdb


 21 20  0  0  0  0  0  0  0  0999 V2000
  -47.6822   60.3913   66.3758 C   0  0  0  0  0  0  0  0  0  0  0  0
  -49.0221   59.8329   65.9651 C   0  0  0  0  0  0  0  0  0  0  0  0
  -49.4407   59.8938   64.5580 C   0  0  0  0  0  0  0  0  0  0  0  0
  -50.9001   60.0734   64.2037 C   0  0  0  0  0  0  0  0  0  0  0  0
  -51.1760   59.5244   62.8045 C   0  0  0  0  0  0  0  0  0  0  0  0
  -50.3771   58.2638   62.4847 C   0  0  0  0  0  0  0  0  0  0  0  0
  -50.8483   57.6133   61.1813 C   0  0  0  0  0  0  0  0  0  0  0  0
  -49.7389   56.9602   60.3482 C   0  0  0  0  0  0  0  0  0  0  0  0
  -48.5335   57.8906   60.1583 C   0  0  0  0  0  0  0  0  0  0  0  0
  -47.4635   57.2907   59.2424 C   0  0  0  0  0  0  0  0  0  0  0  0
  -47.3481   58.0059   57.8908 C   0  0  0  0  0  0  0  0  0  0  0  0
  -46.8084   60.4460   65.1330 C   0  0  0  0  0  0  0  0  0  0  0  0
  -45.7055   59.4033   65.1722 C   0  0  0  0  0  0  0  0  0  0  0  0
  -45.1391   59.2546   66.5811 C   0  0  0  0  0  0  0  0  0  0  0  0
  -43.6502   58.9438   66.5179 C   0  0  0  0  0  0  0  0  0  0  0  0
  -42.8306   60.0873   67.0945 C   0  0  0  0  0  0  0  0  0  0  0  0
  -41.3601   59.9579   66.7107 C   0  0  0  0  0  0  0  0  0  0  0  0
  -40.9878   61.0590   65.7368 C   0  0  0  0  0  0  0  0  0  0  0  0
  -41.1288   60.8817   64.4998 O   0  0  0  0  0  0  0  0  0  0  0  0
  -40.5319   62.1536   66.1577 O   0  0  0  0  0  0  0  0  0  0  0  0
  -40.4239   62.2935   67.0778 H   0  0  0  0  0  0  0  0  0  0  0  0
 18 19  2  0  0  0
 18 17  1  0  0  0
 18 20  1  0  0  0
 17 16  1  0  0  0
 20 21  1  0  0  0
 16 15  1  0  0  0
 15 14  1  0  0  0
 14 13  1  0  0  0
 13 12  1  0  0  0
 12  1  1  0  0  0
  1  2  1  0  0  0
  2  3  1  0  0  0
  3  4  1  0  0  0
  4  5  1  0  0  0
  5  6  1  0  0  0
  6  7  1  0  0  0
  7  8  1  0  0  0
  8  9  1  0  0  0
  9 10  1  0  0  0
 10 11  1  0  0  0
M  END
> <minimizedAffinity>
-7.19564

> <CNNscore>
0.8999500871

> <CNNaffinity>
6.7439088821

> <CNN_VS>
6.0691814423

> <CNNaffinity_variance>
0.5092002749

$$$$
/media/chris/experiments/cd1a-new-docking/inputs/ligands/4x6d_1_ligand.pdb


 21 20  0  0  0  0  0  0  0  0999 V2000
  -47.0554   59.3789   64.8501 C   0  0  0  0  0  0  0  0  0  0  0  0
  -47.9863   58.2019   65.0049 C   0  0  0  0  0  0  0  0  0  0  0  0
  -49.4401   58.4043   64.9381 C   0  0  0  0  0  0  0  0  0  0  0  0
  -50.0483   59.7169   65.3795 C   0  0  0  0  0  0  0  0  0  0  0  0
  -50.9989   60.2466   64.3067 C   0  0  0  0  0  0  0  0  0  0  0  0
  -50.8038   59.5795   62.9477 C   0  0  0  0  0  0  0  0  0  0  0  0
  -49.8894   60.4065   62.0400 C   0  0  0  0  0  0  0  0  0  0  0  0
  -49.3488   59.6588   60.8151 C   0  0  0  0  0  0  0  0  0  0  0  0
  -48.7160   58.3125   61.1913 C   0  0  0  0  0  0  0  0  0  0  0  0
  -48.6234   57.3514   60.0033 C   0  0  0  0  0  0  0  0  0  0  0  0
  -47.6773   57.8378   58.8988 C   0  0  0  0  0  0  0  0  0  0  0  0
  -46.2314   59.4816   66.1235 C   0  0  0  0  0  0  0  0  0  0  0  0
  -44.7794   59.8151   65.8308 C   0  0  0  0  0  0  0  0  0  0  0  0
  -44.0787   58.6543   65.1312 C   0  0  0  0  0  0  0  0  0  0  0  0
  -42.8662   58.2105   65.9377 C   0  0  0  0  0  0  0  0  0  0  0  0
  -42.0578   59.4088   66.4090 C   0  0  0  0  0  0  0  0  0  0  0  0
  -41.0621   59.8540   65.3429 C   0  0  0  0  0  0  0  0  0  0  0  0
  -40.2947   61.0657   65.8351 C   0  0  0  0  0  0  0  0  0  0  0  0
  -39.1043   60.9443   66.2223 O   0  0  0  0  0  0  0  0  0  0  0  0
  -40.8431   62.1977   65.8642 O   0  0  0  0  0  0  0  0  0  0  0  0
  -41.7296   62.2964   65.5774 H   0  0  0  0  0  0  0  0  0  0  0  0
 18 19  2  0  0  0
 18 17  1  0  0  0
 18 20  1  0  0  0
 17 16  1  0  0  0
 20 21  1  0  0  0
 16 15  1  0  0  0
 15 14  1  0  0  0
 14 13  1  0  0  0
 13 12  1  0  0  0
 12  1  1  0  0  0
  1  2  1  0  0  0
  2  3  1  0  0  0
  3  4  1  0  0  0
  4  5  1  0  0  0
  5  6  1  0  0  0
  6  7  1  0  0  0
  7  8  1  0  0  0
  8  9  1  0  0  0
  9 10  1  0  0  0
 10 11  1  0  0  0
M  END
> <minimizedAffinity>
-6.87117

> <CNNscore>
0.8834462166

> <CNNaffinity>
6.7621002197

> <CNN_VS>
5.9739518166

> <CNNaffinity_variance>
0.5597570539

$$$$
/media/chris/experiments/cd1a-new-docking/inputs/ligands/4x6d_1_ligand.pdb


 21 20  0  0  0  0  0  0  0  0999 V2000
  -46.5547   58.8084   67.0489 C   0  0  0  0  0  0  0  0  0  0  0  0
  -46.9798   57.6981   66.1202 C   0  0  0  0  0  0  0  0  0  0  0  0
  -48.2853   57.7641   65.4492 C   0  0  0  0  0  0  0  0  0  0  0  0
  -48.4293   58.4924   64.1315 C   0  0  0  0  0  0  0  0  0  0  0  0
  -49.7727   59.2185   64.0726 C   0  0  0  0  0  0  0  0  0  0  0  0
  -50.6847   58.7067   62.9609 C   0  0  0  0  0  0  0  0  0  0  0  0
  -49.9209   57.8328   61.9625 C   0  0  0  0  0  0  0  0  0  0  0  0
  -50.7156   57.4357   60.7126 C   0  0  0  0  0  0  0  0  0  0  0  0
  -49.9300   57.6952   59.4203 C   0  0  0  0  0  0  0  0  0  0  0  0
  -48.5212   58.2333   59.6840 C   0  0  0  0  0  0  0  0  0  0  0  0
  -47.4251   57.4607   58.9403 C   0  0  0  0  0  0  0  0  0  0  0  0
  -45.1497   59.2282   66.6478 C   0  0  0  0  0  0  0  0  0  0  0  0
  -45.0026   59.3398   65.1408 C   0  0  0  0  0  0  0  0  0  0  0  0
  -43.8383   58.4918   64.6376 C   0  0  0  0  0  0  0  0  0  0  0  0
  -42.9510   58.0750   65.8022 C   0  0  0  0  0  0  0  0  0  0  0  0
  -41.5425   58.6234   65.6368 C   0  0  0  0  0  0  0  0  0  0  0  0
  -41.3089   59.8230   66.5493 C   0  0  0  0  0  0  0  0  0  0  0  0
  -41.0985   61.0689   65.7110 C   0  0  0  0  0  0  0  0  0  0  0  0
  -41.6125   61.1536   64.5664 O   0  0  0  0  0  0  0  0  0  0  0  0
  -40.4061   62.0228   66.1512 O   0  0  0  0  0  0  0  0  0  0  0  0
  -40.0198   61.9674   67.0030 H   0  0  0  0  0  0  0  0  0  0  0  0
 18 19  2  0  0  0
 18 17  1  0  0  0
 18 20  1  0  0  0
 17 16  1  0  0  0
 20 21  1  0  0  0
 16 15  1  0  0  0
 15 14  1  0  0  0
 14 13  1  0  0  0
 13 12  1  0  0  0
 12  1  1  0  0  0
  1  2  1  0  0  0
  2  3  1  0  0  0
  3  4  1  0  0  0
  4  5  1  0  0  0
  5  6  1  0  0  0
  6  7  1  0  0  0
  7  8  1  0  0  0
  8  9  1  0  0  0
  9 10  1  0  0  0
 10 11  1  0  0  0
M  END
> <minimizedAffinity>
-6.83739

> <CNNscore>
0.8631439805

> <CNNaffinity>
6.8279619217

> <CNN_VS>
5.8935141563

> <CNNaffinity_variance>
0.4654364586

$$$$
/media/chris/experiments/cd1a-new-docking/inputs/ligands/4x6d_1_ligand.pdb


 21 20  0  0  0  0  0  0  0  0999 V2000
  -47.0120   56.7486   65.9918 C   0  0  0  0  0  0  0  0  0  0  0  0
  -48.0124   57.6879   65.3649 C   0  0  0  0  0  0  0  0  0  0  0  0
  -47.7963   59.1396   65.4329 C   0  0  0  0  0  0  0  0  0  0  0  0
  -48.9418   60.0658   65.7755 C   0  0  0  0  0  0  0  0  0  0  0  0
  -50.2746   59.4209   65.3972 C   0  0  0  0  0  0  0  0  0  0  0  0
  -51.1096   60.2774   64.4493 C   0  0  0  0  0  0  0  0  0  0  0  0
  -50.9216   59.8512   62.9909 C   0  0  0  0  0  0  0  0  0  0  0  0
  -50.5002   58.3898   62.7949 C   0  0  0  0  0  0  0  0  0  0  0  0
  -51.0626   57.7941   61.4975 C   0  0  0  0  0  0  0  0  0  0  0  0
  -49.9930   57.0886   60.6597 C   0  0  0  0  0  0  0  0  0  0  0  0
  -49.9029   57.6119   59.2212 C   0  0  0  0  0  0  0  0  0  0  0  0
  -45.7236   57.5271   66.2043 C   0  0  0  0  0  0  0  0  0  0  0  0
  -44.6649   57.1565   65.1812 C   0  0  0  0  0  0  0  0  0  0  0  0
  -43.3486   57.8728   65.4677 C   0  0  0  0  0  0  0  0  0  0  0  0
  -43.5727   59.0051   66.4603 C   0  0  0  0  0  0  0  0  0  0  0  0
  -42.2671   59.4130   67.1244 C   0  0  0  0  0  0  0  0  0  0  0  0
  -41.7372   60.7183   66.5397 C   0  0  0  0  0  0  0  0  0  0  0  0
  -40.3499   60.4962   65.9693 C   0  0  0  0  0  0  0  0  0  0  0  0
  -40.0591   59.4000   65.4258 O   0  0  0  0  0  0  0  0  0  0  0  0
  -39.4802   61.4027   66.0394 O   0  0  0  0  0  0  0  0  0  0  0  0
  -39.6891   62.2223   66.4428 H   0  0  0  0  0  0  0  0  0  0  0  0
 18 19  2  0  0  0
 18 17  1  0  0  0
 18 20  1  0  0  0
 17 16  1  0  0  0
 20 21  1  0  0  0
 16 15  1  0  0  0
 15 14  1  0  0  0
 14 13  1  0  0  0
 13 12  1  0  0  0
 12  1  1  0  0  0
  1  2  1  0  0  0
  2  3  1  0  0  0
  3  4  1  0  0  0
  4  5  1  0  0  0
  5  6  1  0  0  0
  6  7  1  0  0  0
  7  8  1  0  0  0
  8  9  1  0  0  0
  9 10  1  0  0  0
 10 11  1  0  0  0
M  END
> <minimizedAffinity>
-6.93606

> <CNNscore>
0.8445766568

> <CNNaffinity>
6.5938019753

> <CNN_VS>
5.5689711571

> <CNNaffinity_variance>
0.3680790067

$$$$
/media/chris/experiments/cd1a-new-docking/inputs/ligands/4x6d_1_ligand.pdb


 21 20  0  0  0  0  0  0  0  0999 V2000
  -42.5697   58.4646   66.5504 C   0  0  0  0  0  0  0  0  0  0  0  0
  -43.6521   57.5970   65.9577 C   0  0  0  0  0  0  0  0  0  0  0  0
  -45.0511   57.7927   66.3621 C   0  0  0  0  0  0  0  0  0  0  0  0
  -45.5261   59.1493   66.8329 C   0  0  0  0  0  0  0  0  0  0  0  0
  -46.8915   59.4711   66.2267 C   0  0  0  0  0  0  0  0  0  0  0  0
  -46.8445   60.6060   65.2071 C   0  0  0  0  0  0  0  0  0  0  0  0
  -48.2229   60.8729   64.5968 C   0  0  0  0  0  0  0  0  0  0  0  0
  -49.2658   59.7787   64.8551 C   0  0  0  0  0  0  0  0  0  0  0  0
  -50.6971   60.2726   64.6058 C   0  0  0  0  0  0  0  0  0  0  0  0
  -51.1761   59.9971   63.1780 C   0  0  0  0  0  0  0  0  0  0  0  0
  -50.7243   58.6356   62.6361 C   0  0  0  0  0  0  0  0  0  0  0  0
  -41.4430   58.5502   65.5334 C   0  0  0  0  0  0  0  0  0  0  0  0
  -40.6598   59.8440   65.6663 C   0  0  0  0  0  0  0  0  0  0  0  0
  -39.2552   59.6984   65.0885 C   0  0  0  0  0  0  0  0  0  0  0  0
  -39.0425   58.2803   64.5773 C   0  0  0  0  0  0  0  0  0  0  0  0
  -37.5711   57.8998   64.6243 C   0  0  0  0  0  0  0  0  0  0  0  0
  -36.6915   59.1293   64.8262 C   0  0  0  0  0  0  0  0  0  0  0  0
  -35.8278   59.3464   63.5989 C   0  0  0  0  0  0  0  0  0  0  0  0
  -35.0341   60.3206   63.5500 O   0  0  0  0  0  0  0  0  0  0  0  0
  -35.9021   58.5583   62.6209 O   0  0  0  0  0  0  0  0  0  0  0  0
  -36.4910   57.8300   62.6496 H   0  0  0  0  0  0  0  0  0  0  0  0
 18 19  2  0  0  0
 18 17  1  0  0  0
 18 20  1  0  0  0
 17 16  1  0  0  0
 20 21  1  0  0  0
 16 15  1  0  0  0
 15 14  1  0  0  0
 14 13  1  0  0  0
 13 12  1  0  0  0
 12  1  1  0  0  0
  1  2  1  0  0  0
  2  3  1  0  0  0
  3  4  1  0  0  0
  4  5  1  0  0  0
  5  6  1  0  0  0
  6  7  1  0  0  0
  7  8  1  0  0  0
  8  9  1  0  0  0
  9 10  1  0  0  0
 10 11  1  0  0  0
M  END
> <minimizedAffinity>
-6.32062

> <CNNscore>
0.7194065452

> <CNNaffinity>
6.2454843521

> <CNN_VS>
4.4930424690

> <CNNaffinity_variance>
0.2738414705

$$$$
/media/chris/experiments/cd1a-new-docking/inputs/ligands/4x6d_1_ligand.pdb


 21 20  0  0  0  0  0  0  0  0999 V2000
  -42.4453   59.6217   66.5422 C   0  0  0  0  0  0  0  0  0  0  0  0
  -43.9241   59.3612   66.3967 C   0  0  0  0  0  0  0  0  0  0  0  0
  -44.4529   58.8277   65.1339 C   0  0  0  0  0  0  0  0  0  0  0  0
  -45.0186   57.4262   65.0758 C   0  0  0  0  0  0  0  0  0  0  0  0
  -46.4698   57.4214   65.5547 C   0  0  0  0  0  0  0  0  0  0  0  0
  -47.3518   58.4210   64.8113 C   0  0  0  0  0  0  0  0  0  0  0  0
  -48.3668   59.0824   65.7475 C   0  0  0  0  0  0  0  0  0  0  0  0
  -49.8312   58.7221   65.4695 C   0  0  0  0  0  0  0  0  0  0  0  0
  -50.6680   59.9513   65.0909 C   0  0  0  0  0  0  0  0  0  0  0  0
  -50.8444   60.1018   63.5776 C   0  0  0  0  0  0  0  0  0  0  0  0
  -50.7518   58.7726   62.8185 C   0  0  0  0  0  0  0  0  0  0  0  0
  -41.7386   58.8952   65.4092 C   0  0  0  0  0  0  0  0  0  0  0  0
  -40.2395   59.1350   65.4332 C   0  0  0  0  0  0  0  0  0  0  0  0
  -39.6918   59.3340   64.0231 C   0  0  0  0  0  0  0  0  0  0  0  0
  -38.2986   58.7306   63.9115 C   0  0  0  0  0  0  0  0  0  0  0  0
  -38.1593   57.9151   62.6357 C   0  0  0  0  0  0  0  0  0  0  0  0
  -37.1187   58.5267   61.7032 C   0  0  0  0  0  0  0  0  0  0  0  0
  -37.8131   59.2076   60.5398 C   0  0  0  0  0  0  0  0  0  0  0  0
  -38.5144   60.2329   60.7359 O   0  0  0  0  0  0  0  0  0  0  0  0
  -37.6970   58.7504   59.3733 O   0  0  0  0  0  0  0  0  0  0  0  0
  -37.1763   57.9869   59.2190 H   0  0  0  0  0  0  0  0  0  0  0  0
 18 19  2  0  0  0
 18 17  1  0  0  0
 18 20  1  0  0  0
 17 16  1  0  0  0
 20 21  1  0  0  0
 16 15  1  0  0  0
 15 14  1  0  0  0
 14 13  1  0  0  0
 13 12  1  0  0  0
 12  1  1  0  0  0
  1  2  1  0  0  0
  2  3  1  0  0  0
  3  4  1  0  0  0
  4  5  1  0  0  0
  5  6  1  0  0  0
  6  7  1  0  0  0
  7  8  1  0  0  0
  8  9  1  0  0  0
  9 10  1  0  0  0
 10 11  1  0  0  0
M  END
> <minimizedAffinity>
-6.58974

> <CNNscore>
0.6964679956

> <CNNaffinity>
6.3161163330

> <CNN_VS>
4.3989729881

> <CNNaffinity_variance>
0.5886853933

$$$$
/media/chris/experiments/cd1a-new-docking/inputs/ligands/4x6d_1_ligand.pdb


 21 20  0  0  0  0  0  0  0  0999 V2000
  -50.0089   58.7215   65.0180 C   0  0  0  0  0  0  0  0  0  0  0  0
  -48.8305   59.0628   65.8960 C   0  0  0  0  0  0  0  0  0  0  0  0
  -48.1135   60.3302   65.6995 C   0  0  0  0  0  0  0  0  0  0  0  0
  -46.7077   60.3324   65.1416 C   0  0  0  0  0  0  0  0  0  0  0  0
  -45.8029   59.4345   65.9845 C   0  0  0  0  0  0  0  0  0  0  0  0
  -44.3797   59.9697   66.1171 C   0  0  0  0  0  0  0  0  0  0  0  0
  -43.3504   58.9746   65.5746 C   0  0  0  0  0  0  0  0  0  0  0  0
  -42.3386   59.5671   64.5863 C   0  0  0  0  0  0  0  0  0  0  0  0
  -42.9602   60.6604   63.7071 C   0  0  0  0  0  0  0  0  0  0  0  0
  -41.9170   61.6299   63.1452 C   0  0  0  0  0  0  0  0  0  0  0  0
  -42.1322   61.9647   61.6643 C   0  0  0  0  0  0  0  0  0  0  0  0
  -50.6682   60.0285   64.6079 C   0  0  0  0  0  0  0  0  0  0  0  0
  -51.1768   59.9798   63.1782 C   0  0  0  0  0  0  0  0  0  0  0  0
  -50.7049   58.7138   62.4694 C   0  0  0  0  0  0  0  0  0  0  0  0
  -49.6806   59.0627   61.3986 C   0  0  0  0  0  0  0  0  0  0  0  0
  -49.2194   57.8164   60.6598 C   0  0  0  0  0  0  0  0  0  0  0  0
  -48.1940   58.1622   59.5850 C   0  0  0  0  0  0  0  0  0  0  0  0
  -47.7807   56.9023   58.8494 C   0  0  0  0  0  0  0  0  0  0  0  0
  -47.1185   56.9825   57.7832 O   0  0  0  0  0  0  0  0  0  0  0  0
  -48.1003   55.7704   59.2964 O   0  0  0  0  0  0  0  0  0  0  0  0
  -48.5935   55.7023   60.0901 H   0  0  0  0  0  0  0  0  0  0  0  0
 18 19  2  0  0  0
 18 17  1  0  0  0
 18 20  1  0  0  0
 17 16  1  0  0  0
 20 21  1  0  0  0
 16 15  1  0  0  0
 15 14  1  0  0  0
 14 13  1  0  0  0
 13 12  1  0  0  0
 12  1  1  0  0  0
  1  2  1  0  0  0
  2  3  1  0  0  0
  3  4  1  0  0  0
  4  5  1  0  0  0
  5  6  1  0  0  0
  6  7  1  0  0  0
  7  8  1  0  0  0
  8  9  1  0  0  0
  9 10  1  0  0  0
 10 11  1  0  0  0
M  END
> <minimizedAffinity>
-6.78047

> <CNNscore>
0.6094399691

> <CNNaffinity>
6.4811806679

> <CNN_VS>
3.9498906136

> <CNNaffinity_variance>
0.5722482800

$$$$
/media/chris/experiments/cd1a-new-docking/inputs/ligands/4x6d_1_ligand.pdb


 21 20  0  0  0  0  0  0  0  0999 V2000
  -46.3383   57.1606   65.9345 C   0  0  0  0  0  0  0  0  0  0  0  0
  -45.4017   58.0662   65.1739 C   0  0  0  0  0  0  0  0  0  0  0  0
  -44.0304   58.2751   65.6585 C   0  0  0  0  0  0  0  0  0  0  0  0
  -43.5660   59.6571   66.0605 C   0  0  0  0  0  0  0  0  0  0  0  0
  -42.2337   59.5718   66.8042 C   0  0  0  0  0  0  0  0  0  0  0  0
  -41.0961   59.0339   65.9404 C   0  0  0  0  0  0  0  0  0  0  0  0
  -40.7176   60.0177   64.8301 C   0  0  0  0  0  0  0  0  0  0  0  0
  -39.6531   59.5075   63.8512 C   0  0  0  0  0  0  0  0  0  0  0  0
  -38.8872   58.2995   64.4066 C   0  0  0  0  0  0  0  0  0  0  0  0
  -37.4700   58.6576   64.8617 C   0  0  0  0  0  0  0  0  0  0  0  0
  -36.4909   57.4797   64.7881 C   0  0  0  0  0  0  0  0  0  0  0  0
  -47.7588   57.5894   65.6041 C   0  0  0  0  0  0  0  0  0  0  0  0
  -47.7887   58.8948   64.8294 C   0  0  0  0  0  0  0  0  0  0  0  0
  -48.5352   58.7335   63.5086 C   0  0  0  0  0  0  0  0  0  0  0  0
  -50.0346   58.6529   63.7598 C   0  0  0  0  0  0  0  0  0  0  0  0
  -50.8166   59.0304   62.5117 C   0  0  0  0  0  0  0  0  0  0  0  0
  -49.9117   59.0615   61.2843 C   0  0  0  0  0  0  0  0  0  0  0  0
  -50.2185   57.8734   60.3935 C   0  0  0  0  0  0  0  0  0  0  0  0
  -49.5166   57.6512   59.3739 O   0  0  0  0  0  0  0  0  0  0  0  0
  -51.1779   57.1057   60.6644 O   0  0  0  0  0  0  0  0  0  0  0  0
  -51.7055   57.2645   61.4222 H   0  0  0  0  0  0  0  0  0  0  0  0
 18 19  2  0  0  0
 18 17  1  0  0  0
 18 20  1  0  0  0
 17 16  1  0  0  0
 20 21  1  0  0  0
 16 15  1  0  0  0
 15 14  1  0  0  0
 14 13  1  0  0  0
 13 12  1  0  0  0
 12  1  1  0  0  0
  1  2  1  0  0  0
  2  3  1  0  0  0
  3  4  1  0  0  0
  4  5  1  0  0  0
  5  6  1  0  0  0
  6  7  1  0  0  0
  7  8  1  0  0  0
  8  9  1  0  0  0
  9 10  1  0  0  0
 10 11  1  0  0  0
M  END
> <minimizedAffinity>
-6.16476

> <CNNscore>
0.6062961221

> <CNNaffinity>
6.3465399742

> <CNN_VS>
3.8478825092

> <CNNaffinity_variance>
0.7509405613

$$$$
/media/chris/experiments/cd1a-new-docking/inputs/ligands/4x6d_1_ligand.pdb


 21 20  0  0  0  0  0  0  0  0999 V2000
  -44.7980   60.1497   65.2580 C   0  0  0  0  0  0  0  0  0  0  0  0
  -46.1582   59.5259   65.4493 C   0  0  0  0  0  0  0  0  0  0  0  0
  -47.3686   60.2992   65.1399 C   0  0  0  0  0  0  0  0  0  0  0  0
  -48.3951   59.7542   64.1721 C   0  0  0  0  0  0  0  0  0  0  0  0
  -48.9012   60.8673   63.2556 C   0  0  0  0  0  0  0  0  0  0  0  0
  -49.5404   60.3452   61.9716 C   0  0  0  0  0  0  0  0  0  0  0  0
  -49.5686   58.8149   61.9378 C   0  0  0  0  0  0  0  0  0  0  0  0
  -49.5047   58.1992   60.5348 C   0  0  0  0  0  0  0  0  0  0  0  0
  -48.2458   58.6297   59.7704 C   0  0  0  0  0  0  0  0  0  0  0  0
  -47.6041   57.4772   58.9934 C   0  0  0  0  0  0  0  0  0  0  0  0
  -48.2506   56.1162   59.2783 C   0  0  0  0  0  0  0  0  0  0  0  0
  -43.8399   59.4625   66.2175 C   0  0  0  0  0  0  0  0  0  0  0  0
  -42.7532   60.4055   66.7021 C   0  0  0  0  0  0  0  0  0  0  0  0
  -41.4548   60.1918   65.9299 C   0  0  0  0  0  0  0  0  0  0  0  0
  -41.1378   61.4190   65.0866 C   0  0  0  0  0  0  0  0  0  0  0  0
  -40.8567   61.0301   63.6438 C   0  0  0  0  0  0  0  0  0  0  0  0
  -42.1450   60.9706   62.8295 C   0  0  0  0  0  0  0  0  0  0  0  0
  -41.9847   61.7846   61.5602 C   0  0  0  0  0  0  0  0  0  0  0  0
  -41.3133   61.3294   60.5991 O   0  0  0  0  0  0  0  0  0  0  0  0
  -42.5169   62.9204   61.4609 O   0  0  0  0  0  0  0  0  0  0  0  0
  -43.0187   63.2665   62.1725 H   0  0  0  0  0  0  0  0  0  0  0  0
 18 19  2  0  0  0
 18 17  1  0  0  0
 18 20  1  0  0  0
 17 16  1  0  0  0
 20 21  1  0  0  0
 16 15  1  0  0  0
 15 14  1  0  0  0
 14 13  1  0  0  0
 13 12  1  0  0  0
 12  1  1  0  0  0
  1  2  1  0  0  0
  2  3  1  0  0  0
  3  4  1  0  0  0
  4  5  1  0  0  0
  5  6  1  0  0  0
  6  7  1  0  0  0
  7  8  1  0  0  0
  8  9  1  0  0  0
  9 10  1  0  0  0
 10 11  1  0  0  0
M  END
> <minimizedAffinity>
-6.52203

> <CNNscore>
0.5508328080

> <CNNaffinity>
6.1394124031

> <CNN_VS>
3.3817896843

> <CNNaffinity_variance>
0.2985455692

$$$$
