/media/chris/experiments/cd1a-new-docking/inputs/ligands/4x6d_1_ligand.pdb


 21 20  0  0  0  0  0  0  0  0999 V2000
  -47.2908   58.7544   64.4887 C   0  0  0  0  0  0  0  0  0  0  0  0
  -48.2889   57.9873   65.3201 C   0  0  0  0  0  0  0  0  0  0  0  0
  -49.7273   58.2359   65.1516 C   0  0  0  0  0  0  0  0  0  0  0  0
  -50.2292   59.6287   64.8426 C   0  0  0  0  0  0  0  0  0  0  0  0
  -50.6826   59.7164   63.3858 C   0  0  0  0  0  0  0  0  0  0  0  0
  -49.7551   60.5623   62.5173 C   0  0  0  0  0  0  0  0  0  0  0  0
  -49.4121   59.8545   61.2037 C   0  0  0  0  0  0  0  0  0  0  0  0
  -49.3109   58.3274   61.3008 C   0  0  0  0  0  0  0  0  0  0  0  0
  -49.0880   57.6736   59.9306 C   0  0  0  0  0  0  0  0  0  0  0  0
  -47.8319   58.1928   59.2263 C   0  0  0  0  0  0  0  0  0  0  0  0
  -47.3652   57.2955   58.0736 C   0  0  0  0  0  0  0  0  0  0  0  0
  -45.9010   58.3557   64.9583 C   0  0  0  0  0  0  0  0  0  0  0  0
  -45.6400   58.7969   66.3874 C   0  0  0  0  0  0  0  0  0  0  0  0
  -44.3069   59.5301   66.5020 C   0  0  0  0  0  0  0  0  0  0  0  0
  -43.9425   60.1679   65.1686 C   0  0  0  0  0  0  0  0  0  0  0  0
  -42.4763   59.9376   64.8379 C   0  0  0  0  0  0  0  0  0  0  0  0
  -41.6094   60.0300   66.0894 C   0  0  0  0  0  0  0  0  0  0  0  0
  -40.5502   61.0982   65.8990 C   0  0  0  0  0  0  0  0  0  0  0  0
  -39.3481   60.7713   65.7268 O   0  0  0  0  0  0  0  0  0  0  0  0
  -40.8644   62.3165   65.9165 O   0  0  0  0  0  0  0  0  0  0  0  0
  -41.7579   62.5682   66.0442 H   0  0  0  0  0  0  0  0  0  0  0  0
 18 19  2  0  0  0
 18 17  1  0  0  0
 18 20  1  0  0  0
 17 16  1  0  0  0
 20 21  1  0  0  0
 16 15  1  0  0  0
 15 14  1  0  0  0
 14 13  1  0  0  0
 13 12  1  0  0  0
 12  1  1  0  0  0
  1  2  1  0  0  0
  2  3  1  0  0  0
  3  4  1  0  0  0
  4  5  1  0  0  0
  5  6  1  0  0  0
  6  7  1  0  0  0
  7  8  1  0  0  0
  8  9  1  0  0  0
  9 10  1  0  0  0
 10 11  1  0  0  0
M  END
> <minimizedAffinity>
-6.71781

> <CNNscore>
0.8850411773

> <CNNaffinity>
6.8544707298

> <CNN_VS>
6.0664887428

> <CNNaffinity_variance>
0.7483608723

$$$$
/media/chris/experiments/cd1a-new-docking/inputs/ligands/4x6d_1_ligand.pdb


 21 20  0  0  0  0  0  0  0  0999 V2000
  -45.0797   58.3635   65.7033 C   0  0  0  0  0  0  0  0  0  0  0  0
  -46.3324   58.5310   64.8796 C   0  0  0  0  0  0  0  0  0  0  0  0
  -47.6474   58.2907   65.4894 C   0  0  0  0  0  0  0  0  0  0  0  0
  -48.8921   58.2605   64.6306 C   0  0  0  0  0  0  0  0  0  0  0  0
  -48.5228   58.4343   63.1580 C   0  0  0  0  0  0  0  0  0  0  0  0
  -49.5300   59.2781   62.3811 C   0  0  0  0  0  0  0  0  0  0  0  0
  -50.8403   58.5206   62.1498 C   0  0  0  0  0  0  0  0  0  0  0  0
  -50.7756   57.4338   61.0699 C   0  0  0  0  0  0  0  0  0  0  0  0
  -50.1391   57.9456   59.7708 C   0  0  0  0  0  0  0  0  0  0  0  0
  -48.8548   57.1959   59.4076 C   0  0  0  0  0  0  0  0  0  0  0  0
  -47.7233   58.1184   58.9382 C   0  0  0  0  0  0  0  0  0  0  0  0
  -44.1054   57.5263   64.8902 C   0  0  0  0  0  0  0  0  0  0  0  0
  -42.8048   57.2897   65.6370 C   0  0  0  0  0  0  0  0  0  0  0  0
  -42.4957   58.4459   66.5833 C   0  0  0  0  0  0  0  0  0  0  0  0
  -41.5199   59.4135   65.9282 C   0  0  0  0  0  0  0  0  0  0  0  0
  -40.6173   58.6907   64.9407 C   0  0  0  0  0  0  0  0  0  0  0  0
  -39.1461   58.9116   65.2771 C   0  0  0  0  0  0  0  0  0  0  0  0
  -38.8211   60.3906   65.1994 C   0  0  0  0  0  0  0  0  0  0  0  0
  -38.4029   60.9992   66.2174 O   0  0  0  0  0  0  0  0  0  0  0  0
  -38.9714   61.0195   64.1199 O   0  0  0  0  0  0  0  0  0  0  0  0
  -39.2825   60.5732   63.3570 H   0  0  0  0  0  0  0  0  0  0  0  0
 18 19  2  0  0  0
 18 17  1  0  0  0
 18 20  1  0  0  0
 17 16  1  0  0  0
 20 21  1  0  0  0
 16 15  1  0  0  0
 15 14  1  0  0  0
 14 13  1  0  0  0
 13 12  1  0  0  0
 12  1  1  0  0  0
  1  2  1  0  0  0
  2  3  1  0  0  0
  3  4  1  0  0  0
  4  5  1  0  0  0
  5  6  1  0  0  0
  6  7  1  0  0  0
  7  8  1  0  0  0
  8  9  1  0  0  0
  9 10  1  0  0  0
 10 11  1  0  0  0
M  END
> <minimizedAffinity>
-6.68342

> <CNNscore>
0.8688446283

> <CNNaffinity>
6.7051811218

> <CNN_VS>
5.8257603645

> <CNNaffinity_variance>
0.5679950118

$$$$
/media/chris/experiments/cd1a-new-docking/inputs/ligands/4x6d_1_ligand.pdb


 21 20  0  0  0  0  0  0  0  0999 V2000
  -45.9048   57.3221   65.9833 C   0  0  0  0  0  0  0  0  0  0  0  0
  -47.1631   58.1267   65.7710 C   0  0  0  0  0  0  0  0  0  0  0  0
  -47.1607   59.2553   64.8302 C   0  0  0  0  0  0  0  0  0  0  0  0
  -47.7786   60.5782   65.2247 C   0  0  0  0  0  0  0  0  0  0  0  0
  -48.9291   60.9268   64.2813 C   0  0  0  0  0  0  0  0  0  0  0  0
  -50.2398   60.2371   64.6508 C   0  0  0  0  0  0  0  0  0  0  0  0
  -51.1222   60.0078   63.4208 C   0  0  0  0  0  0  0  0  0  0  0  0
  -50.8380   58.7096   62.6556 C   0  0  0  0  0  0  0  0  0  0  0  0
  -50.0140   58.9550   61.3848 C   0  0  0  0  0  0  0  0  0  0  0  0
  -48.6712   58.2200   61.4009 C   0  0  0  0  0  0  0  0  0  0  0  0
  -48.1576   57.8592   60.0017 C   0  0  0  0  0  0  0  0  0  0  0  0
  -45.0234   57.5191   64.7606 C   0  0  0  0  0  0  0  0  0  0  0  0
  -43.5761   57.1578   65.0439 C   0  0  0  0  0  0  0  0  0  0  0  0
  -43.1643   57.5955   66.4463 C   0  0  0  0  0  0  0  0  0  0  0  0
  -42.0597   58.6400   66.3668 C   0  0  0  0  0  0  0  0  0  0  0  0
  -42.6420   60.0412   66.2678 C   0  0  0  0  0  0  0  0  0  0  0  0
  -42.2086   60.7267   64.9761 C   0  0  0  0  0  0  0  0  0  0  0  0
  -40.8644   61.3979   65.1805 C   0  0  0  0  0  0  0  0  0  0  0  0
  -40.6762   62.1437   66.1754 O   0  0  0  0  0  0  0  0  0  0  0  0
  -39.9311   61.2179   64.3560 O   0  0  0  0  0  0  0  0  0  0  0  0
  -40.0634   60.6636   63.6121 H   0  0  0  0  0  0  0  0  0  0  0  0
 18 19  2  0  0  0
 18 17  1  0  0  0
 18 20  1  0  0  0
 17 16  1  0  0  0
 20 21  1  0  0  0
 16 15  1  0  0  0
 15 14  1  0  0  0
 14 13  1  0  0  0
 13 12  1  0  0  0
 12  1  1  0  0  0
  1  2  1  0  0  0
  2  3  1  0  0  0
  3  4  1  0  0  0
  4  5  1  0  0  0
  5  6  1  0  0  0
  6  7  1  0  0  0
  7  8  1  0  0  0
  8  9  1  0  0  0
  9 10  1  0  0  0
 10 11  1  0  0  0
M  END
> <minimizedAffinity>
-6.67000

> <CNNscore>
0.7817397118

> <CNNaffinity>
6.6031785011

> <CNN_VS>
5.1619668007

> <CNNaffinity_variance>
0.5385009050

$$$$
/media/chris/experiments/cd1a-new-docking/inputs/ligands/4x6d_1_ligand.pdb


 21 20  0  0  0  0  0  0  0  0999 V2000
  -42.8244   59.3042   64.7839 C   0  0  0  0  0  0  0  0  0  0  0  0
  -43.6530   59.5807   66.0139 C   0  0  0  0  0  0  0  0  0  0  0  0
  -45.1100   59.7301   65.8970 C   0  0  0  0  0  0  0  0  0  0  0  0
  -45.9168   58.7337   65.0946 C   0  0  0  0  0  0  0  0  0  0  0  0
  -47.2727   58.4949   65.7577 C   0  0  0  0  0  0  0  0  0  0  0  0
  -48.2896   57.8383   64.8277 C   0  0  0  0  0  0  0  0  0  0  0  0
  -49.3794   58.8243   64.3983 C   0  0  0  0  0  0  0  0  0  0  0  0
  -48.9819   59.7691   63.2578 C   0  0  0  0  0  0  0  0  0  0  0  0
  -49.7838   59.5008   61.9775 C   0  0  0  0  0  0  0  0  0  0  0  0
  -50.8467   58.4150   62.1634 C   0  0  0  0  0  0  0  0  0  0  0  0
  -50.9459   57.4501   60.9757 C   0  0  0  0  0  0  0  0  0  0  0  0
  -41.5085   58.6985   65.2448 C   0  0  0  0  0  0  0  0  0  0  0  0
  -40.5307   59.7620   65.7119 C   0  0  0  0  0  0  0  0  0  0  0  0
  -39.0904   59.3509   65.4211 C   0  0  0  0  0  0  0  0  0  0  0  0
  -39.0394   58.4498   64.1951 C   0  0  0  0  0  0  0  0  0  0  0  0
  -37.7852   58.7146   63.3771 C   0  0  0  0  0  0  0  0  0  0  0  0
  -37.9036   58.1153   61.9796 C   0  0  0  0  0  0  0  0  0  0  0  0
  -37.8614   59.2222   60.9442 C   0  0  0  0  0  0  0  0  0  0  0  0
  -37.7075   60.4174   61.3040 O   0  0  0  0  0  0  0  0  0  0  0  0
  -37.9844   58.9546   59.7208 O   0  0  0  0  0  0  0  0  0  0  0  0
  -38.0995   58.0666   59.4447 H   0  0  0  0  0  0  0  0  0  0  0  0
 18 19  2  0  0  0
 18 17  1  0  0  0
 18 20  1  0  0  0
 17 16  1  0  0  0
 20 21  1  0  0  0
 16 15  1  0  0  0
 15 14  1  0  0  0
 14 13  1  0  0  0
 13 12  1  0  0  0
 12  1  1  0  0  0
  1  2  1  0  0  0
  2  3  1  0  0  0
  3  4  1  0  0  0
  4  5  1  0  0  0
  5  6  1  0  0  0
  6  7  1  0  0  0
  7  8  1  0  0  0
  8  9  1  0  0  0
  9 10  1  0  0  0
 10 11  1  0  0  0
M  END
> <minimizedAffinity>
-6.38954

> <CNNscore>
0.6652508378

> <CNNaffinity>
6.3383617401

> <CNN_VS>
4.2166004181

> <CNNaffinity_variance>
0.7399411201

$$$$
/media/chris/experiments/cd1a-new-docking/inputs/ligands/4x6d_1_ligand.pdb


 21 20  0  0  0  0  0  0  0  0999 V2000
  -47.4094   59.2191   64.7774 C   0  0  0  0  0  0  0  0  0  0  0  0
  -48.3895   58.2715   65.4234 C   0  0  0  0  0  0  0  0  0  0  0  0
  -49.8329   58.4655   65.2285 C   0  0  0  0  0  0  0  0  0  0  0  0
  -50.4895   59.7655   65.6363 C   0  0  0  0  0  0  0  0  0  0  0  0
  -51.0164   60.5010   64.4046 C   0  0  0  0  0  0  0  0  0  0  0  0
  -51.0762   59.6211   63.1588 C   0  0  0  0  0  0  0  0  0  0  0  0
  -50.1695   60.1559   62.0470 C   0  0  0  0  0  0  0  0  0  0  0  0
  -49.1705   59.1381   61.4834 C   0  0  0  0  0  0  0  0  0  0  0  0
  -49.6084   57.6910   61.7451 C   0  0  0  0  0  0  0  0  0  0  0  0
  -50.3313   57.0675   60.5483 C   0  0  0  0  0  0  0  0  0  0  0  0
  -49.8947   57.6537   59.2002 C   0  0  0  0  0  0  0  0  0  0  0  0
  -46.4712   59.7188   65.8641 C   0  0  0  0  0  0  0  0  0  0  0  0
  -45.1936   60.2987   65.2839 C   0  0  0  0  0  0  0  0  0  0  0  0
  -43.9927   59.4138   65.6044 C   0  0  0  0  0  0  0  0  0  0  0  0
  -43.3595   59.8449   66.9199 C   0  0  0  0  0  0  0  0  0  0  0  0
  -41.8897   59.4582   66.9689 C   0  0  0  0  0  0  0  0  0  0  0  0
  -41.1762   59.8450   65.6775 C   0  0  0  0  0  0  0  0  0  0  0  0
  -40.3254   61.0777   65.9139 C   0  0  0  0  0  0  0  0  0  0  0  0
  -39.0939   60.9606   66.1402 O   0  0  0  0  0  0  0  0  0  0  0  0
  -40.8446   62.2236   65.8899 O   0  0  0  0  0  0  0  0  0  0  0  0
  -41.7614   62.3192   65.7220 H   0  0  0  0  0  0  0  0  0  0  0  0
 18 19  2  0  0  0
 18 17  1  0  0  0
 18 20  1  0  0  0
 17 16  1  0  0  0
 20 21  1  0  0  0
 16 15  1  0  0  0
 15 14  1  0  0  0
 14 13  1  0  0  0
 13 12  1  0  0  0
 12  1  1  0  0  0
  1  2  1  0  0  0
  2  3  1  0  0  0
  3  4  1  0  0  0
  4  5  1  0  0  0
  5  6  1  0  0  0
  6  7  1  0  0  0
  7  8  1  0  0  0
  8  9  1  0  0  0
  9 10  1  0  0  0
 10 11  1  0  0  0
M  END
> <minimizedAffinity>
-7.13370

> <CNNscore>
0.6591433883

> <CNNaffinity>
6.2756090164

> <CNN_VS>
4.1365261078

> <CNNaffinity_variance>
0.2733570933

$$$$
/media/chris/experiments/cd1a-new-docking/inputs/ligands/4x6d_1_ligand.pdb


 21 20  0  0  0  0  0  0  0  0999 V2000
  -44.9371   58.1215   64.6319 C   0  0  0  0  0  0  0  0  0  0  0  0
  -45.5532   57.1128   65.5694 C   0  0  0  0  0  0  0  0  0  0  0  0
  -46.7748   57.4534   66.3114 C   0  0  0  0  0  0  0  0  0  0  0  0
  -48.1210   57.4139   65.6231 C   0  0  0  0  0  0  0  0  0  0  0  0
  -48.5993   58.8323   65.3152 C   0  0  0  0  0  0  0  0  0  0  0  0
  -50.0934   58.9107   65.0127 C   0  0  0  0  0  0  0  0  0  0  0  0
  -50.4241   60.1032   64.1112 C   0  0  0  0  0  0  0  0  0  0  0  0
  -49.3161   60.4940   63.1258 C   0  0  0  0  0  0  0  0  0  0  0  0
  -49.6928   60.1722   61.6735 C   0  0  0  0  0  0  0  0  0  0  0  0
  -49.0146   58.9012   61.1557 C   0  0  0  0  0  0  0  0  0  0  0  0
  -49.7732   58.2326   60.0028 C   0  0  0  0  0  0  0  0  0  0  0  0
  -45.0806   59.4916   65.2747 C   0  0  0  0  0  0  0  0  0  0  0  0
  -43.7310   60.1339   65.5418 C   0  0  0  0  0  0  0  0  0  0  0  0
  -43.2479   59.8307   66.9569 C   0  0  0  0  0  0  0  0  0  0  0  0
  -42.0639   58.8749   66.9136 C   0  0  0  0  0  0  0  0  0  0  0  0
  -41.3905   58.9042   65.5505 C   0  0  0  0  0  0  0  0  0  0  0  0
  -40.0127   59.5533   65.6318 C   0  0  0  0  0  0  0  0  0  0  0  0
  -40.1152   61.0180   65.2532 C   0  0  0  0  0  0  0  0  0  0  0  0
  -39.9219   61.3773   64.0636 O   0  0  0  0  0  0  0  0  0  0  0  0
  -40.3892   61.8831   66.1248 O   0  0  0  0  0  0  0  0  0  0  0  0
  -40.5347   61.6233   67.0133 H   0  0  0  0  0  0  0  0  0  0  0  0
 18 19  2  0  0  0
 18 17  1  0  0  0
 18 20  1  0  0  0
 17 16  1  0  0  0
 20 21  1  0  0  0
 16 15  1  0  0  0
 15 14  1  0  0  0
 14 13  1  0  0  0
 13 12  1  0  0  0
 12  1  1  0  0  0
  1  2  1  0  0  0
  2  3  1  0  0  0
  3  4  1  0  0  0
  4  5  1  0  0  0
  5  6  1  0  0  0
  6  7  1  0  0  0
  7  8  1  0  0  0
  8  9  1  0  0  0
  9 10  1  0  0  0
 10 11  1  0  0  0
M  END
> <minimizedAffinity>
-6.59651

> <CNNscore>
0.6586914659

> <CNNaffinity>
6.4105453491

> <CNN_VS>
4.2225713730

> <CNNaffinity_variance>
0.4294986725

$$$$
/media/chris/experiments/cd1a-new-docking/inputs/ligands/4x6d_1_ligand.pdb


 21 20  0  0  0  0  0  0  0  0999 V2000
  -44.9379   59.0561   65.8693 C   0  0  0  0  0  0  0  0  0  0  0  0
  -45.5886   58.0212   64.9854 C   0  0  0  0  0  0  0  0  0  0  0  0
  -47.0358   57.7844   65.0781 C   0  0  0  0  0  0  0  0  0  0  0  0
  -48.0114   58.7982   64.5231 C   0  0  0  0  0  0  0  0  0  0  0  0
  -48.7684   58.2078   63.3342 C   0  0  0  0  0  0  0  0  0  0  0  0
  -50.1610   58.8054   63.1513 C   0  0  0  0  0  0  0  0  0  0  0  0
  -50.9296   58.1091   62.0250 C   0  0  0  0  0  0  0  0  0  0  0  0
  -50.0593   57.3087   61.0486 C   0  0  0  0  0  0  0  0  0  0  0  0
  -49.7278   58.1066   59.7806 C   0  0  0  0  0  0  0  0  0  0  0  0
  -48.2431   58.4658   59.6805 C   0  0  0  0  0  0  0  0  0  0  0  0
  -47.5669   57.9151   58.4191 C   0  0  0  0  0  0  0  0  0  0  0  0
  -44.3293   60.1146   64.9636 C   0  0  0  0  0  0  0  0  0  0  0  0
  -43.0172   59.6511   64.3563 C   0  0  0  0  0  0  0  0  0  0  0  0
  -42.4010   60.7392   63.4821 C   0  0  0  0  0  0  0  0  0  0  0  0
  -40.9818   61.0412   63.9427 C   0  0  0  0  0  0  0  0  0  0  0  0
  -39.9761   60.7320   62.8449 C   0  0  0  0  0  0  0  0  0  0  0  0
  -39.1499   59.4968   63.1882 C   0  0  0  0  0  0  0  0  0  0  0  0
  -38.1574   59.2210   62.0755 C   0  0  0  0  0  0  0  0  0  0  0  0
  -37.6525   60.1747   61.4296 O   0  0  0  0  0  0  0  0  0  0  0  0
  -37.8358   58.0391   61.7878 O   0  0  0  0  0  0  0  0  0  0  0  0
  -38.2076   57.3231   62.2644 H   0  0  0  0  0  0  0  0  0  0  0  0
 18 19  2  0  0  0
 18 17  1  0  0  0
 18 20  1  0  0  0
 17 16  1  0  0  0
 20 21  1  0  0  0
 16 15  1  0  0  0
 15 14  1  0  0  0
 14 13  1  0  0  0
 13 12  1  0  0  0
 12  1  1  0  0  0
  1  2  1  0  0  0
  2  3  1  0  0  0
  3  4  1  0  0  0
  4  5  1  0  0  0
  5  6  1  0  0  0
  6  7  1  0  0  0
  7  8  1  0  0  0
  8  9  1  0  0  0
  9 10  1  0  0  0
 10 11  1  0  0  0
M  END
> <minimizedAffinity>
-6.42264

> <CNNscore>
0.6500574350

> <CNNaffinity>
6.5447144508

> <CNN_VS>
4.2544403076

> <CNNaffinity_variance>
0.7705407739

$$$$
/media/chris/experiments/cd1a-new-docking/inputs/ligands/4x6d_1_ligand.pdb


 21 20  0  0  0  0  0  0  0  0999 V2000
  -46.3975   57.0164   65.6779 C   0  0  0  0  0  0  0  0  0  0  0  0
  -47.4665   58.0633   65.4858 C   0  0  0  0  0  0  0  0  0  0  0  0
  -47.6813   58.6556   64.1584 C   0  0  0  0  0  0  0  0  0  0  0  0
  -48.6794   59.7773   63.9764 C   0  0  0  0  0  0  0  0  0  0  0  0
  -49.2021   59.7923   62.5404 C   0  0  0  0  0  0  0  0  0  0  0  0
  -50.6847   59.4444   62.4365 C   0  0  0  0  0  0  0  0  0  0  0  0
  -50.8940   57.9699   62.0815 C   0  0  0  0  0  0  0  0  0  0  0  0
  -50.7386   57.6361   60.5929 C   0  0  0  0  0  0  0  0  0  0  0  0
  -49.6251   56.6105   60.3426 C   0  0  0  0  0  0  0  0  0  0  0  0
  -48.7683   56.9556   59.1218 C   0  0  0  0  0  0  0  0  0  0  0  0
  -47.9326   58.2283   59.3045 C   0  0  0  0  0  0  0  0  0  0  0  0
  -45.3063   57.6291   66.5410 C   0  0  0  0  0  0  0  0  0  0  0  0
  -43.9379   57.5016   65.8955 C   0  0  0  0  0  0  0  0  0  0  0  0
  -43.8896   58.2359   64.5589 C   0  0  0  0  0  0  0  0  0  0  0  0
  -43.9617   59.7398   64.7837 C   0  0  0  0  0  0  0  0  0  0  0  0
  -42.6269   60.4004   64.4767 C   0  0  0  0  0  0  0  0  0  0  0  0
  -42.7896   61.5186   63.4523 C   0  0  0  0  0  0  0  0  0  0  0  0
  -41.7491   61.3657   62.3599 C   0  0  0  0  0  0  0  0  0  0  0  0
  -41.9920   61.7740   61.1955 O   0  0  0  0  0  0  0  0  0  0  0  0
  -40.6397   60.8264   62.6085 O   0  0  0  0  0  0  0  0  0  0  0  0
  -40.4512   60.5197   63.4735 H   0  0  0  0  0  0  0  0  0  0  0  0
 18 19  2  0  0  0
 18 17  1  0  0  0
 18 20  1  0  0  0
 17 16  1  0  0  0
 20 21  1  0  0  0
 16 15  1  0  0  0
 15 14  1  0  0  0
 14 13  1  0  0  0
 13 12  1  0  0  0
 12  1  1  0  0  0
  1  2  1  0  0  0
  2  3  1  0  0  0
  3  4  1  0  0  0
  4  5  1  0  0  0
  5  6  1  0  0  0
  6  7  1  0  0  0
  7  8  1  0  0  0
  8  9  1  0  0  0
  9 10  1  0  0  0
 10 11  1  0  0  0
M  END
> <minimizedAffinity>
-6.57380

> <CNNscore>
0.6368376613

> <CNNaffinity>
6.4328889847

> <CNN_VS>
4.0967059135

> <CNNaffinity_variance>
0.4424968362

$$$$
/media/chris/experiments/cd1a-new-docking/inputs/ligands/4x6d_1_ligand.pdb


 21 20  0  0  0  0  0  0  0  0999 V2000
  -43.1433   58.6152   65.0256 C   0  0  0  0  0  0  0  0  0  0  0  0
  -43.9467   57.3403   65.0974 C   0  0  0  0  0  0  0  0  0  0  0  0
  -45.4136   57.3946   65.0333 C   0  0  0  0  0  0  0  0  0  0  0  0
  -46.2428   57.0679   66.2553 C   0  0  0  0  0  0  0  0  0  0  0  0
  -47.7152   56.9244   65.8723 C   0  0  0  0  0  0  0  0  0  0  0  0
  -48.2214   58.0639   64.9919 C   0  0  0  0  0  0  0  0  0  0  0  0
  -49.7185   58.3113   65.1957 C   0  0  0  0  0  0  0  0  0  0  0  0
  -50.1058   59.7784   65.4179 C   0  0  0  0  0  0  0  0  0  0  0  0
  -49.9400   60.6201   64.1458 C   0  0  0  0  0  0  0  0  0  0  0  0
  -50.5771   59.9652   62.9175 C   0  0  0  0  0  0  0  0  0  0  0  0
  -49.7848   60.1953   61.6249 C   0  0  0  0  0  0  0  0  0  0  0  0
  -44.1263   59.7732   64.9641 C   0  0  0  0  0  0  0  0  0  0  0  0
  -43.4878   61.0256   64.3905 C   0  0  0  0  0  0  0  0  0  0  0  0
  -42.2291   60.6875   63.5973 C   0  0  0  0  0  0  0  0  0  0  0  0
  -42.2290   61.4337   62.2703 C   0  0  0  0  0  0  0  0  0  0  0  0
  -40.9621   61.1414   61.4819 C   0  0  0  0  0  0  0  0  0  0  0  0
  -39.8653   60.5912   62.3879 C   0  0  0  0  0  0  0  0  0  0  0  0
  -38.5929   60.3940   61.5872 C   0  0  0  0  0  0  0  0  0  0  0  0
  -37.4878   60.2791   62.1765 O   0  0  0  0  0  0  0  0  0  0  0  0
  -38.6322   60.3485   60.3303 O   0  0  0  0  0  0  0  0  0  0  0  0
  -39.4516   60.4334   59.8839 H   0  0  0  0  0  0  0  0  0  0  0  0
 18 19  2  0  0  0
 18 17  1  0  0  0
 18 20  1  0  0  0
 17 16  1  0  0  0
 20 21  1  0  0  0
 16 15  1  0  0  0
 15 14  1  0  0  0
 14 13  1  0  0  0
 13 12  1  0  0  0
 12  1  1  0  0  0
  1  2  1  0  0  0
  2  3  1  0  0  0
  3  4  1  0  0  0
  4  5  1  0  0  0
  5  6  1  0  0  0
  6  7  1  0  0  0
  7  8  1  0  0  0
  8  9  1  0  0  0
  9 10  1  0  0  0
 10 11  1  0  0  0
M  END
> <minimizedAffinity>
-6.50552

> <CNNscore>
0.6228606105

> <CNNaffinity>
6.3350367546

> <CNN_VS>
3.9458448887

> <CNNaffinity_variance>
0.4878991544

$$$$
