/media/chris/experiments/cd1a-new-docking/inputs/ligands/4x6d_1_ligand.pdb


 21 20  0  0  0  0  0  0  0  0999 V2000
  -46.9289   58.5147   65.5914 C   0  0  0  0  0  0  0  0  0  0  0  0
  -47.7387   58.4324   64.3212 C   0  0  0  0  0  0  0  0  0  0  0  0
  -49.0613   59.0687   64.2533 C   0  0  0  0  0  0  0  0  0  0  0  0
  -50.2135   58.3622   63.5744 C   0  0  0  0  0  0  0  0  0  0  0  0
  -50.7542   59.2145   62.4271 C   0  0  0  0  0  0  0  0  0  0  0  0
  -49.7459   60.2375   61.9108 C   0  0  0  0  0  0  0  0  0  0  0  0
  -49.2266   59.8647   60.5196 C   0  0  0  0  0  0  0  0  0  0  0  0
  -48.6119   58.4637   60.4145 C   0  0  0  0  0  0  0  0  0  0  0  0
  -49.1974   57.6608   59.2453 C   0  0  0  0  0  0  0  0  0  0  0  0
  -48.1180   57.0931   58.3200 C   0  0  0  0  0  0  0  0  0  0  0  0
  -47.0954   58.1404   57.8627 C   0  0  0  0  0  0  0  0  0  0  0  0
  -45.8060   57.4954   65.4855 C   0  0  0  0  0  0  0  0  0  0  0  0
  -44.6914   57.9764   64.5737 C   0  0  0  0  0  0  0  0  0  0  0  0
  -43.3217   57.6311   65.1503 C   0  0  0  0  0  0  0  0  0  0  0  0
  -43.2055   58.1532   66.5755 C   0  0  0  0  0  0  0  0  0  0  0  0
  -41.8933   58.8942   66.7785 C   0  0  0  0  0  0  0  0  0  0  0  0
  -42.1222   60.3983   66.8864 C   0  0  0  0  0  0  0  0  0  0  0  0
  -41.3070   61.1159   65.8283 C   0  0  0  0  0  0  0  0  0  0  0  0
  -41.4157   60.7894   64.6188 O   0  0  0  0  0  0  0  0  0  0  0  0
  -40.5142   62.0379   66.1521 O   0  0  0  0  0  0  0  0  0  0  0  0
  -40.4275   62.2870   67.0512 H   0  0  0  0  0  0  0  0  0  0  0  0
 18 19  2  0  0  0
 18 17  1  0  0  0
 18 20  1  0  0  0
 17 16  1  0  0  0
 20 21  1  0  0  0
 16 15  1  0  0  0
 15 14  1  0  0  0
 14 13  1  0  0  0
 13 12  1  0  0  0
 12  1  1  0  0  0
  1  2  1  0  0  0
  2  3  1  0  0  0
  3  4  1  0  0  0
  4  5  1  0  0  0
  5  6  1  0  0  0
  6  7  1  0  0  0
  7  8  1  0  0  0
  8  9  1  0  0  0
  9 10  1  0  0  0
 10 11  1  0  0  0
M  END
> <minimizedAffinity>
-6.85675

> <CNNscore>
0.8670046329

> <CNNaffinity>
6.7962279320

> <CNN_VS>
5.8923611641

> <CNNaffinity_variance>
0.6230369806

$$$$
/media/chris/experiments/cd1a-new-docking/inputs/ligands/4x6d_1_ligand.pdb


 21 20  0  0  0  0  0  0  0  0999 V2000
  -46.8078   58.0542   65.4705 C   0  0  0  0  0  0  0  0  0  0  0  0
  -48.2991   58.1420   65.6808 C   0  0  0  0  0  0  0  0  0  0  0  0
  -48.9311   59.4491   65.9067 C   0  0  0  0  0  0  0  0  0  0  0  0
  -50.3764   59.6740   65.5219 C   0  0  0  0  0  0  0  0  0  0  0  0
  -50.4600   60.5203   64.2523 C   0  0  0  0  0  0  0  0  0  0  0  0
  -51.1763   59.8136   63.1045 C   0  0  0  0  0  0  0  0  0  0  0  0
  -50.4943   58.4913   62.7433 C   0  0  0  0  0  0  0  0  0  0  0  0
  -50.4189   58.1936   61.2409 C   0  0  0  0  0  0  0  0  0  0  0  0
  -49.2770   58.9563   60.5561 C   0  0  0  0  0  0  0  0  0  0  0  0
  -48.2518   58.0243   59.9051 C   0  0  0  0  0  0  0  0  0  0  0  0
  -48.7680   57.3468   58.6299 C   0  0  0  0  0  0  0  0  0  0  0  0
  -46.1868   59.3077   66.0656 C   0  0  0  0  0  0  0  0  0  0  0  0
  -45.5939   60.2065   64.9952 C   0  0  0  0  0  0  0  0  0  0  0  0
  -44.1134   60.4682   65.2550 C   0  0  0  0  0  0  0  0  0  0  0  0
  -43.6448   59.6738   66.4661 C   0  0  0  0  0  0  0  0  0  0  0  0
  -42.4184   60.3151   67.0963 C   0  0  0  0  0  0  0  0  0  0  0  0
  -41.1356   59.7954   66.4554 C   0  0  0  0  0  0  0  0  0  0  0  0
  -40.2964   60.9627   65.9737 C   0  0  0  0  0  0  0  0  0  0  0  0
  -39.2096   60.7546   65.3761 O   0  0  0  0  0  0  0  0  0  0  0  0
  -40.6776   62.1454   66.1717 O   0  0  0  0  0  0  0  0  0  0  0  0
  -41.4861   62.3088   66.6161 H   0  0  0  0  0  0  0  0  0  0  0  0
 18 19  2  0  0  0
 18 17  1  0  0  0
 18 20  1  0  0  0
 17 16  1  0  0  0
 20 21  1  0  0  0
 16 15  1  0  0  0
 15 14  1  0  0  0
 14 13  1  0  0  0
 13 12  1  0  0  0
 12  1  1  0  0  0
  1  2  1  0  0  0
  2  3  1  0  0  0
  3  4  1  0  0  0
  4  5  1  0  0  0
  5  6  1  0  0  0
  6  7  1  0  0  0
  7  8  1  0  0  0
  8  9  1  0  0  0
  9 10  1  0  0  0
 10 11  1  0  0  0
M  END
> <minimizedAffinity>
-6.95464

> <CNNscore>
0.8619323373

> <CNNaffinity>
6.6155443192

> <CNN_VS>
5.7021517754

> <CNNaffinity_variance>
0.4453352988

$$$$
/media/chris/experiments/cd1a-new-docking/inputs/ligands/4x6d_1_ligand.pdb


 21 20  0  0  0  0  0  0  0  0999 V2000
  -47.3553   58.7035   64.4469 C   0  0  0  0  0  0  0  0  0  0  0  0
  -48.5728   58.0354   65.0361 C   0  0  0  0  0  0  0  0  0  0  0  0
  -49.8257   58.7898   65.1777 C   0  0  0  0  0  0  0  0  0  0  0  0
  -50.0327   60.0754   64.4084 C   0  0  0  0  0  0  0  0  0  0  0  0
  -50.4456   59.7698   62.9691 C   0  0  0  0  0  0  0  0  0  0  0  0
  -49.5282   60.4109   61.9313 C   0  0  0  0  0  0  0  0  0  0  0  0
  -49.3375   59.5054   60.7115 C   0  0  0  0  0  0  0  0  0  0  0  0
  -48.9287   58.0634   61.0360 C   0  0  0  0  0  0  0  0  0  0  0  0
  -47.8600   57.5335   60.0709 C   0  0  0  0  0  0  0  0  0  0  0  0
  -48.2093   57.7930   58.6032 C   0  0  0  0  0  0  0  0  0  0  0  0
  -46.9836   58.0767   57.7263 C   0  0  0  0  0  0  0  0  0  0  0  0
  -46.5510   59.2867   65.5976 C   0  0  0  0  0  0  0  0  0  0  0  0
  -45.7141   60.4742   65.1563 C   0  0  0  0  0  0  0  0  0  0  0  0
  -44.2254   60.1417   65.1928 C   0  0  0  0  0  0  0  0  0  0  0  0
  -43.8383   59.6182   66.5688 C   0  0  0  0  0  0  0  0  0  0  0  0
  -42.5374   60.2461   67.0439 C   0  0  0  0  0  0  0  0  0  0  0  0
  -41.3740   59.8508   66.1402 C   0  0  0  0  0  0  0  0  0  0  0  0
  -40.4259   61.0240   65.9861 C   0  0  0  0  0  0  0  0  0  0  0  0
  -40.8751   62.1981   65.9524 O   0  0  0  0  0  0  0  0  0  0  0  0
  -39.1864   60.8320   65.8863 O   0  0  0  0  0  0  0  0  0  0  0  0
  -38.8438   59.9602   65.9106 H   0  0  0  0  0  0  0  0  0  0  0  0
 18 19  2  0  0  0
 18 17  1  0  0  0
 18 20  1  0  0  0
 17 16  1  0  0  0
 20 21  1  0  0  0
 16 15  1  0  0  0
 15 14  1  0  0  0
 14 13  1  0  0  0
 13 12  1  0  0  0
 12  1  1  0  0  0
  1  2  1  0  0  0
  2  3  1  0  0  0
  3  4  1  0  0  0
  4  5  1  0  0  0
  5  6  1  0  0  0
  6  7  1  0  0  0
  7  8  1  0  0  0
  8  9  1  0  0  0
  9 10  1  0  0  0
 10 11  1  0  0  0
M  END
> <minimizedAffinity>
-7.10827

> <CNNscore>
0.8364779353

> <CNNaffinity>
6.6413660049

> <CNN_VS>
5.5553560257

> <CNNaffinity_variance>
0.4427054822

$$$$
/media/chris/experiments/cd1a-new-docking/inputs/ligands/4x6d_1_ligand.pdb


 21 20  0  0  0  0  0  0  0  0999 V2000
  -49.5080   58.4669   65.5329 C   0  0  0  0  0  0  0  0  0  0  0  0
  -50.0103   59.8275   65.1177 C   0  0  0  0  0  0  0  0  0  0  0  0
  -51.0491   59.9408   64.0848 C   0  0  0  0  0  0  0  0  0  0  0  0
  -50.6732   59.9205   62.6199 C   0  0  0  0  0  0  0  0  0  0  0  0
  -50.7609   58.4970   62.0711 C   0  0  0  0  0  0  0  0  0  0  0  0
  -49.3965   57.8860   61.7634 C   0  0  0  0  0  0  0  0  0  0  0  0
  -49.2611   57.5264   60.2814 C   0  0  0  0  0  0  0  0  0  0  0  0
  -48.1216   58.2417   59.5454 C   0  0  0  0  0  0  0  0  0  0  0  0
  -47.3218   57.2868   58.6493 C   0  0  0  0  0  0  0  0  0  0  0  0
  -47.9751   57.0754   57.2810 C   0  0  0  0  0  0  0  0  0  0  0  0
  -47.6269   55.7256   56.6419 C   0  0  0  0  0  0  0  0  0  0  0  0
  -48.0352   58.3903   65.1643 C   0  0  0  0  0  0  0  0  0  0  0  0
  -47.1619   58.1348   66.3796 C   0  0  0  0  0  0  0  0  0  0  0  0
  -46.2946   59.3488   66.6987 C   0  0  0  0  0  0  0  0  0  0  0  0
  -45.8865   60.0545   65.4130 C   0  0  0  0  0  0  0  0  0  0  0  0
  -44.3757   60.0423   65.2413 C   0  0  0  0  0  0  0  0  0  0  0  0
  -43.6736   59.7747   66.5687 C   0  0  0  0  0  0  0  0  0  0  0  0
  -42.7025   58.6213   66.4092 C   0  0  0  0  0  0  0  0  0  0  0  0
  -41.4770   58.8470   66.2397 O   0  0  0  0  0  0  0  0  0  0  0  0
  -43.1148   57.4329   66.4403 O   0  0  0  0  0  0  0  0  0  0  0  0
  -44.0264   57.2564   66.5662 H   0  0  0  0  0  0  0  0  0  0  0  0
 18 19  2  0  0  0
 18 17  1  0  0  0
 18 20  1  0  0  0
 17 16  1  0  0  0
 20 21  1  0  0  0
 16 15  1  0  0  0
 15 14  1  0  0  0
 14 13  1  0  0  0
 13 12  1  0  0  0
 12  1  1  0  0  0
  1  2  1  0  0  0
  2  3  1  0  0  0
  3  4  1  0  0  0
  4  5  1  0  0  0
  5  6  1  0  0  0
  6  7  1  0  0  0
  7  8  1  0  0  0
  8  9  1  0  0  0
  9 10  1  0  0  0
 10 11  1  0  0  0
M  END
> <minimizedAffinity>
-6.98354

> <CNNscore>
0.8031597137

> <CNNaffinity>
6.6876220703

> <CNN_VS>
5.3712286949

> <CNNaffinity_variance>
0.3931469023

$$$$
/media/chris/experiments/cd1a-new-docking/inputs/ligands/4x6d_1_ligand.pdb


 21 20  0  0  0  0  0  0  0  0999 V2000
  -47.0447   60.5810   64.9614 C   0  0  0  0  0  0  0  0  0  0  0  0
  -47.8490   59.3350   64.6849 C   0  0  0  0  0  0  0  0  0  0  0  0
  -49.3171   59.3949   64.6897 C   0  0  0  0  0  0  0  0  0  0  0  0
  -50.1031   58.9308   63.4838 C   0  0  0  0  0  0  0  0  0  0  0  0
  -49.1581   58.3810   62.4162 C   0  0  0  0  0  0  0  0  0  0  0  0
  -49.5159   58.8365   61.0040 C   0  0  0  0  0  0  0  0  0  0  0  0
  -50.0184   57.6720   60.1464 C   0  0  0  0  0  0  0  0  0  0  0  0
  -49.2561   57.4626   58.8323 C   0  0  0  0  0  0  0  0  0  0  0  0
  -47.7603   57.7733   58.9748 C   0  0  0  0  0  0  0  0  0  0  0  0
  -47.0583   57.9286   57.6232 C   0  0  0  0  0  0  0  0  0  0  0  0
  -47.6202   57.0051   56.5355 C   0  0  0  0  0  0  0  0  0  0  0  0
  -45.6121   60.1506   65.2321 C   0  0  0  0  0  0  0  0  0  0  0  0
  -45.4571   58.6411   65.1810 C   0  0  0  0  0  0  0  0  0  0  0  0
  -44.1354   58.2458   64.5293 C   0  0  0  0  0  0  0  0  0  0  0  0
  -43.3318   57.3580   65.4691 C   0  0  0  0  0  0  0  0  0  0  0  0
  -42.6703   58.1815   66.5630 C   0  0  0  0  0  0  0  0  0  0  0  0
  -41.6879   59.1890   65.9748 C   0  0  0  0  0  0  0  0  0  0  0  0
  -41.8106   60.5100   66.7088 C   0  0  0  0  0  0  0  0  0  0  0  0
  -41.1660   61.5145   66.3125 O   0  0  0  0  0  0  0  0  0  0  0  0
  -42.5527   60.6099   67.7201 O   0  0  0  0  0  0  0  0  0  0  0  0
  -43.0363   59.8661   68.0216 H   0  0  0  0  0  0  0  0  0  0  0  0
 18 19  2  0  0  0
 18 17  1  0  0  0
 18 20  1  0  0  0
 17 16  1  0  0  0
 20 21  1  0  0  0
 16 15  1  0  0  0
 15 14  1  0  0  0
 14 13  1  0  0  0
 13 12  1  0  0  0
 12  1  1  0  0  0
  1  2  1  0  0  0
  2  3  1  0  0  0
  3  4  1  0  0  0
  4  5  1  0  0  0
  5  6  1  0  0  0
  6  7  1  0  0  0
  7  8  1  0  0  0
  8  9  1  0  0  0
  9 10  1  0  0  0
 10 11  1  0  0  0
M  END
> <minimizedAffinity>
-7.01139

> <CNNscore>
0.7866738439

> <CNNaffinity>
6.5591912270

> <CNN_VS>
5.1599440575

> <CNNaffinity_variance>
0.4349662662

$$$$
/media/chris/experiments/cd1a-new-docking/inputs/ligands/4x6d_1_ligand.pdb


 21 20  0  0  0  0  0  0  0  0999 V2000
  -45.9931   58.4148   64.7120 C   0  0  0  0  0  0  0  0  0  0  0  0
  -47.4292   58.8611   64.8316 C   0  0  0  0  0  0  0  0  0  0  0  0
  -48.4683   57.8922   65.2062 C   0  0  0  0  0  0  0  0  0  0  0  0
  -49.8868   58.3538   65.4559 C   0  0  0  0  0  0  0  0  0  0  0  0
  -49.9726   59.8763   65.3568 C   0  0  0  0  0  0  0  0  0  0  0  0
  -51.0717   60.3566   64.4128 C   0  0  0  0  0  0  0  0  0  0  0  0
  -50.8763   59.8104   62.9960 C   0  0  0  0  0  0  0  0  0  0  0  0
  -49.7160   60.4404   62.2159 C   0  0  0  0  0  0  0  0  0  0  0  0
  -49.3912   59.6633   60.9332 C   0  0  0  0  0  0  0  0  0  0  0  0
  -48.8081   58.2762   61.2152 C   0  0  0  0  0  0  0  0  0  0  0  0
  -48.0538   57.6784   60.0213 C   0  0  0  0  0  0  0  0  0  0  0  0
  -45.3368   58.6147   66.0686 C   0  0  0  0  0  0  0  0  0  0  0  0
  -44.3017   57.5424   66.3582 C   0  0  0  0  0  0  0  0  0  0  0  0
  -42.9178   57.9702   65.8790 C   0  0  0  0  0  0  0  0  0  0  0  0
  -42.1681   58.6737   67.0016 C   0  0  0  0  0  0  0  0  0  0  0  0
  -42.2307   60.1839   66.8352 C   0  0  0  0  0  0  0  0  0  0  0  0
  -42.1073   60.5809   65.3677 C   0  0  0  0  0  0  0  0  0  0  0  0
  -41.0506   61.6579   65.2174 C   0  0  0  0  0  0  0  0  0  0  0  0
  -40.2058   61.8448   66.1301 O   0  0  0  0  0  0  0  0  0  0  0  0
  -41.0140   62.3739   64.1834 O   0  0  0  0  0  0  0  0  0  0  0  0
  -41.6399   62.2409   63.4990 H   0  0  0  0  0  0  0  0  0  0  0  0
 18 19  2  0  0  0
 18 17  1  0  0  0
 18 20  1  0  0  0
 17 16  1  0  0  0
 20 21  1  0  0  0
 16 15  1  0  0  0
 15 14  1  0  0  0
 14 13  1  0  0  0
 13 12  1  0  0  0
 12  1  1  0  0  0
  1  2  1  0  0  0
  2  3  1  0  0  0
  3  4  1  0  0  0
  4  5  1  0  0  0
  5  6  1  0  0  0
  6  7  1  0  0  0
  7  8  1  0  0  0
  8  9  1  0  0  0
  9 10  1  0  0  0
 10 11  1  0  0  0
M  END
> <minimizedAffinity>
-6.87680

> <CNNscore>
0.7812430859

> <CNNaffinity>
6.5592436790

> <CNN_VS>
5.1243638992

> <CNNaffinity_variance>
0.5125342011

$$$$
/media/chris/experiments/cd1a-new-docking/inputs/ligands/4x6d_1_ligand.pdb


 21 20  0  0  0  0  0  0  0  0999 V2000
  -51.0989   59.8244   62.9427 C   0  0  0  0  0  0  0  0  0  0  0  0
  -50.8059   60.0238   64.4091 C   0  0  0  0  0  0  0  0  0  0  0  0
  -50.2480   58.9192   65.2012 C   0  0  0  0  0  0  0  0  0  0  0  0
  -48.8496   59.0184   65.7688 C   0  0  0  0  0  0  0  0  0  0  0  0
  -47.9500   59.8129   64.8228 C   0  0  0  0  0  0  0  0  0  0  0  0
  -46.8964   60.6434   65.5507 C   0  0  0  0  0  0  0  0  0  0  0  0
  -45.4782   60.1726   65.2171 C   0  0  0  0  0  0  0  0  0  0  0  0
  -44.7446   59.4701   66.3660 C   0  0  0  0  0  0  0  0  0  0  0  0
  -45.3820   58.1199   66.7202 C   0  0  0  0  0  0  0  0  0  0  0  0
  -45.3434   57.1258   65.5567 C   0  0  0  0  0  0  0  0  0  0  0  0
  -43.9356   56.9060   64.9898 C   0  0  0  0  0  0  0  0  0  0  0  0
  -50.5004   58.4882   62.5337 C   0  0  0  0  0  0  0  0  0  0  0  0
  -49.8332   58.5619   61.1719 C   0  0  0  0  0  0  0  0  0  0  0  0
  -50.3765   57.4877   60.2344 C   0  0  0  0  0  0  0  0  0  0  0  0
  -49.5978   57.4901   58.9264 C   0  0  0  0  0  0  0  0  0  0  0  0
  -48.1238   57.2067   59.1700 C   0  0  0  0  0  0  0  0  0  0  0  0
  -47.3153   57.3573   57.8854 C   0  0  0  0  0  0  0  0  0  0  0  0
  -47.7874   56.3420   56.8631 C   0  0  0  0  0  0  0  0  0  0  0  0
  -47.7921   55.1167   57.1461 O   0  0  0  0  0  0  0  0  0  0  0  0
  -48.1727   56.7163   55.7252 O   0  0  0  0  0  0  0  0  0  0  0  0
  -48.1722   57.6274   55.5066 H   0  0  0  0  0  0  0  0  0  0  0  0
 18 19  2  0  0  0
 18 17  1  0  0  0
 18 20  1  0  0  0
 17 16  1  0  0  0
 20 21  1  0  0  0
 16 15  1  0  0  0
 15 14  1  0  0  0
 14 13  1  0  0  0
 13 12  1  0  0  0
 12  1  1  0  0  0
  1  2  1  0  0  0
  2  3  1  0  0  0
  3  4  1  0  0  0
  4  5  1  0  0  0
  5  6  1  0  0  0
  6  7  1  0  0  0
  7  8  1  0  0  0
  8  9  1  0  0  0
  9 10  1  0  0  0
 10 11  1  0  0  0
M  END
> <minimizedAffinity>
-7.32024

> <CNNscore>
0.6918272376

> <CNNaffinity>
6.6745476723

> <CNN_VS>
4.6176338196

> <CNNaffinity_variance>
0.2285176069

$$$$
/media/chris/experiments/cd1a-new-docking/inputs/ligands/4x6d_1_ligand.pdb


 21 20  0  0  0  0  0  0  0  0999 V2000
  -49.3216   59.8278   65.4700 C   0  0  0  0  0  0  0  0  0  0  0  0
  -50.6753   59.9553   64.8165 C   0  0  0  0  0  0  0  0  0  0  0  0
  -50.8223   59.6906   63.3787 C   0  0  0  0  0  0  0  0  0  0  0  0
  -50.4646   58.3345   62.8126 C   0  0  0  0  0  0  0  0  0  0  0  0
  -49.1733   58.4244   62.0003 C   0  0  0  0  0  0  0  0  0  0  0  0
  -49.3612   59.1009   60.6450 C   0  0  0  0  0  0  0  0  0  0  0  0
  -49.7987   58.1008   59.5715 C   0  0  0  0  0  0  0  0  0  0  0  0
  -48.8113   56.9556   59.3158 C   0  0  0  0  0  0  0  0  0  0  0  0
  -47.4015   57.4681   58.9925 C   0  0  0  0  0  0  0  0  0  0  0  0
  -47.2524   57.9041   57.5326 C   0  0  0  0  0  0  0  0  0  0  0  0
  -47.8351   56.8970   56.5336 C   0  0  0  0  0  0  0  0  0  0  0  0
  -48.4340   60.9237   64.9025 C   0  0  0  0  0  0  0  0  0  0  0  0
  -46.9612   60.5742   65.0193 C   0  0  0  0  0  0  0  0  0  0  0  0
  -46.7142   59.6139   66.1789 C   0  0  0  0  0  0  0  0  0  0  0  0
  -45.2239   59.3394   66.3246 C   0  0  0  0  0  0  0  0  0  0  0  0
  -44.4156   60.2026   65.3687 C   0  0  0  0  0  0  0  0  0  0  0  0
  -42.9459   59.7943   65.3681 C   0  0  0  0  0  0  0  0  0  0  0  0
  -42.4063   59.8282   66.7847 C   0  0  0  0  0  0  0  0  0  0  0  0
  -42.0178   58.7675   67.3375 O   0  0  0  0  0  0  0  0  0  0  0  0
  -42.3474   60.9140   67.4177 O   0  0  0  0  0  0  0  0  0  0  0  0
  -42.6349   61.7086   67.0128 H   0  0  0  0  0  0  0  0  0  0  0  0
 18 19  2  0  0  0
 18 17  1  0  0  0
 18 20  1  0  0  0
 17 16  1  0  0  0
 20 21  1  0  0  0
 16 15  1  0  0  0
 15 14  1  0  0  0
 14 13  1  0  0  0
 13 12  1  0  0  0
 12  1  1  0  0  0
  1  2  1  0  0  0
  2  3  1  0  0  0
  3  4  1  0  0  0
  4  5  1  0  0  0
  5  6  1  0  0  0
  6  7  1  0  0  0
  7  8  1  0  0  0
  8  9  1  0  0  0
  9 10  1  0  0  0
 10 11  1  0  0  0
M  END
> <minimizedAffinity>
-7.06163

> <CNNscore>
0.6882550120

> <CNNaffinity>
6.5565147400

> <CNN_VS>
4.5125541687

> <CNNaffinity_variance>
0.4924224019

$$$$
/media/chris/experiments/cd1a-new-docking/inputs/ligands/4x6d_1_ligand.pdb


 21 20  0  0  0  0  0  0  0  0999 V2000
  -50.6007   59.8553   62.4849 C   0  0  0  0  0  0  0  0  0  0  0  0
  -50.9164   60.4024   63.8549 C   0  0  0  0  0  0  0  0  0  0  0  0
  -50.6569   59.5845   65.0477 C   0  0  0  0  0  0  0  0  0  0  0  0
  -49.2940   59.6029   65.7030 C   0  0  0  0  0  0  0  0  0  0  0  0
  -48.5393   58.3114   65.3902 C   0  0  0  0  0  0  0  0  0  0  0  0
  -47.4832   58.4806   64.3014 C   0  0  0  0  0  0  0  0  0  0  0  0
  -46.0758   58.1942   64.8317 C   0  0  0  0  0  0  0  0  0  0  0  0
  -45.4615   59.3202   65.6722 C   0  0  0  0  0  0  0  0  0  0  0  0
  -43.9293   59.3340   65.5902 C   0  0  0  0  0  0  0  0  0  0  0  0
  -43.2812   60.0518   66.7770 C   0  0  0  0  0  0  0  0  0  0  0  0
  -41.9468   59.4319   67.2090 C   0  0  0  0  0  0  0  0  0  0  0  0
  -50.8411   58.3548   62.5244 C   0  0  0  0  0  0  0  0  0  0  0  0
  -50.3369   57.6692   61.2670 C   0  0  0  0  0  0  0  0  0  0  0  0
  -48.9328   58.1451   60.9066 C   0  0  0  0  0  0  0  0  0  0  0  0
  -48.7146   58.0450   59.4034 C   0  0  0  0  0  0  0  0  0  0  0  0
  -47.4207   57.3105   59.0889 C   0  0  0  0  0  0  0  0  0  0  0  0
  -47.0381   57.4744   57.6215 C   0  0  0  0  0  0  0  0  0  0  0  0
  -47.7278   56.4090   56.7921 C   0  0  0  0  0  0  0  0  0  0  0  0
  -47.8128   55.2305   57.2229 O   0  0  0  0  0  0  0  0  0  0  0  0
  -48.2150   56.6939   55.6675 O   0  0  0  0  0  0  0  0  0  0  0  0
  -48.1558   57.5696   55.3395 H   0  0  0  0  0  0  0  0  0  0  0  0
 18 19  2  0  0  0
 18 17  1  0  0  0
 18 20  1  0  0  0
 17 16  1  0  0  0
 20 21  1  0  0  0
 16 15  1  0  0  0
 15 14  1  0  0  0
 14 13  1  0  0  0
 13 12  1  0  0  0
 12  1  1  0  0  0
  1  2  1  0  0  0
  2  3  1  0  0  0
  3  4  1  0  0  0
  4  5  1  0  0  0
  5  6  1  0  0  0
  6  7  1  0  0  0
  7  8  1  0  0  0
  8  9  1  0  0  0
  9 10  1  0  0  0
 10 11  1  0  0  0
M  END
> <minimizedAffinity>
-7.24522

> <CNNscore>
0.6696223617

> <CNNaffinity>
6.7142090797

> <CNN_VS>
4.4959845543

> <CNNaffinity_variance>
0.4054076076

$$$$
