/media/chris/experiments/cd1a-new-docking/inputs/ligands/4x6d_1_ligand.pdb


 21 20  0  0  0  0  0  0  0  0999 V2000
  -47.3278   57.2709   66.0768 C   0  0  0  0  0  0  0  0  0  0  0  0
  -47.8212   58.4830   65.3262 C   0  0  0  0  0  0  0  0  0  0  0  0
  -49.0171   58.3827   64.4785 C   0  0  0  0  0  0  0  0  0  0  0  0
  -50.1126   59.4205   64.5797 C   0  0  0  0  0  0  0  0  0  0  0  0
  -50.9787   59.3997   63.3207 C   0  0  0  0  0  0  0  0  0  0  0  0
  -50.2304   58.9092   62.0842 C   0  0  0  0  0  0  0  0  0  0  0  0
  -50.9359   57.7153   61.4351 C   0  0  0  0  0  0  0  0  0  0  0  0
  -50.1309   57.0086   60.3378 C   0  0  0  0  0  0  0  0  0  0  0  0
  -49.2712   57.9883   59.5283 C   0  0  0  0  0  0  0  0  0  0  0  0
  -47.8370   57.4908   59.3306 C   0  0  0  0  0  0  0  0  0  0  0  0
  -47.1933   57.9886   58.0308 C   0  0  0  0  0  0  0  0  0  0  0  0
  -45.9066   57.5610   66.5316 C   0  0  0  0  0  0  0  0  0  0  0  0
  -45.6959   59.0369   66.8182 C   0  0  0  0  0  0  0  0  0  0  0  0
  -44.3203   59.4982   66.3458 C   0  0  0  0  0  0  0  0  0  0  0  0
  -44.4487   60.2928   65.0536 C   0  0  0  0  0  0  0  0  0  0  0  0
  -43.0900   60.4933   64.4010 C   0  0  0  0  0  0  0  0  0  0  0  0
  -41.9627   60.3211   65.4139 C   0  0  0  0  0  0  0  0  0  0  0  0
  -40.9377   61.4231   65.2291 C   0  0  0  0  0  0  0  0  0  0  0  0
  -40.6212   62.1597   66.1982 O   0  0  0  0  0  0  0  0  0  0  0  0
  -40.4009   61.6115   64.1069 O   0  0  0  0  0  0  0  0  0  0  0  0
  -40.6313   61.0670   63.3800 H   0  0  0  0  0  0  0  0  0  0  0  0
 18 19  2  0  0  0
 18 17  1  0  0  0
 18 20  1  0  0  0
 17 16  1  0  0  0
 20 21  1  0  0  0
 16 15  1  0  0  0
 15 14  1  0  0  0
 14 13  1  0  0  0
 13 12  1  0  0  0
 12  1  1  0  0  0
  1  2  1  0  0  0
  2  3  1  0  0  0
  3  4  1  0  0  0
  4  5  1  0  0  0
  5  6  1  0  0  0
  6  7  1  0  0  0
  7  8  1  0  0  0
  8  9  1  0  0  0
  9 10  1  0  0  0
 10 11  1  0  0  0
M  END
> <minimizedAffinity>
-6.98950

> <CNNscore>
0.9517665505

> <CNNaffinity>
7.1416997910

> <CNN_VS>
6.7972311974

> <CNNaffinity_variance>
0.8081959486

$$$$
/media/chris/experiments/cd1a-new-docking/inputs/ligands/4x6d_1_ligand.pdb


 21 20  0  0  0  0  0  0  0  0999 V2000
  -46.2059   57.8380   65.8288 C   0  0  0  0  0  0  0  0  0  0  0  0
  -47.6461   57.5146   65.5173 C   0  0  0  0  0  0  0  0  0  0  0  0
  -48.3435   58.2373   64.4448 C   0  0  0  0  0  0  0  0  0  0  0  0
  -49.8010   58.6103   64.5993 C   0  0  0  0  0  0  0  0  0  0  0  0
  -50.4843   58.6505   63.2330 C   0  0  0  0  0  0  0  0  0  0  0  0
  -49.7118   57.8992   62.1520 C   0  0  0  0  0  0  0  0  0  0  0  0
  -50.5229   57.7807   60.8588 C   0  0  0  0  0  0  0  0  0  0  0  0
  -49.6923   57.5098   59.5986 C   0  0  0  0  0  0  0  0  0  0  0  0
  -48.2191   57.8978   59.7817 C   0  0  0  0  0  0  0  0  0  0  0  0
  -47.2958   57.1984   58.7807 C   0  0  0  0  0  0  0  0  0  0  0  0
  -46.9462   58.0661   57.5655 C   0  0  0  0  0  0  0  0  0  0  0  0
  -45.4483   57.8700   64.5112 C   0  0  0  0  0  0  0  0  0  0  0  0
  -44.0150   58.3355   64.6954 C   0  0  0  0  0  0  0  0  0  0  0  0
  -43.2639   57.4319   65.6688 C   0  0  0  0  0  0  0  0  0  0  0  0
  -42.4618   58.2724   66.6525 C   0  0  0  0  0  0  0  0  0  0  0  0
  -41.8154   59.4584   65.9541 C   0  0  0  0  0  0  0  0  0  0  0  0
  -40.4228   59.1033   65.4430 C   0  0  0  0  0  0  0  0  0  0  0  0
  -39.5076   60.3046   65.5788 C   0  0  0  0  0  0  0  0  0  0  0  0
  -39.8995   61.4414   65.2103 O   0  0  0  0  0  0  0  0  0  0  0  0
  -38.3507   60.1729   66.0556 O   0  0  0  0  0  0  0  0  0  0  0  0
  -38.0513   59.3292   66.3325 H   0  0  0  0  0  0  0  0  0  0  0  0
 18 19  2  0  0  0
 18 17  1  0  0  0
 18 20  1  0  0  0
 17 16  1  0  0  0
 20 21  1  0  0  0
 16 15  1  0  0  0
 15 14  1  0  0  0
 14 13  1  0  0  0
 13 12  1  0  0  0
 12  1  1  0  0  0
  1  2  1  0  0  0
  2  3  1  0  0  0
  3  4  1  0  0  0
  4  5  1  0  0  0
  5  6  1  0  0  0
  6  7  1  0  0  0
  7  8  1  0  0  0
  8  9  1  0  0  0
  9 10  1  0  0  0
 10 11  1  0  0  0
M  END
> <minimizedAffinity>
-6.86538

> <CNNscore>
0.9381006360

> <CNNaffinity>
7.1249008179

> <CNN_VS>
6.6838741302

> <CNNaffinity_variance>
0.7327331305

$$$$
/media/chris/experiments/cd1a-new-docking/inputs/ligands/4x6d_1_ligand.pdb


 21 20  0  0  0  0  0  0  0  0999 V2000
  -47.2115   58.7048   64.7372 C   0  0  0  0  0  0  0  0  0  0  0  0
  -48.3734   58.2193   65.5680 C   0  0  0  0  0  0  0  0  0  0  0  0
  -49.7397   58.6457   65.2360 C   0  0  0  0  0  0  0  0  0  0  0  0
  -50.0238   60.0887   64.8834 C   0  0  0  0  0  0  0  0  0  0  0  0
  -51.1774   60.1718   63.8845 C   0  0  0  0  0  0  0  0  0  0  0  0
  -50.9738   59.2892   62.6560 C   0  0  0  0  0  0  0  0  0  0  0  0
  -49.7994   59.7743   61.8018 C   0  0  0  0  0  0  0  0  0  0  0  0
  -48.9966   58.6617   61.1170 C   0  0  0  0  0  0  0  0  0  0  0  0
  -49.8670   57.8105   60.1830 C   0  0  0  0  0  0  0  0  0  0  0  0
  -49.1416   57.4209   58.8924 C   0  0  0  0  0  0  0  0  0  0  0  0
  -47.7322   58.0152   58.7828 C   0  0  0  0  0  0  0  0  0  0  0  0
  -46.0242   58.8825   65.6699 C   0  0  0  0  0  0  0  0  0  0  0  0
  -44.9646   57.8190   65.4435 C   0  0  0  0  0  0  0  0  0  0  0  0
  -43.8070   58.3639   64.6122 C   0  0  0  0  0  0  0  0  0  0  0  0
  -43.4950   59.7963   65.0228 C   0  0  0  0  0  0  0  0  0  0  0  0
  -42.4331   59.8314   66.1106 C   0  0  0  0  0  0  0  0  0  0  0  0
  -41.0330   59.7192   65.5160 C   0  0  0  0  0  0  0  0  0  0  0  0
  -40.4687   61.1056   65.2738 C   0  0  0  0  0  0  0  0  0  0  0  0
  -39.9515   61.3914   64.1636 O   0  0  0  0  0  0  0  0  0  0  0  0
  -40.5093   61.9768   66.1807 O   0  0  0  0  0  0  0  0  0  0  0  0
  -40.8930   61.7717   67.0106 H   0  0  0  0  0  0  0  0  0  0  0  0
 18 19  2  0  0  0
 18 17  1  0  0  0
 18 20  1  0  0  0
 17 16  1  0  0  0
 20 21  1  0  0  0
 16 15  1  0  0  0
 15 14  1  0  0  0
 14 13  1  0  0  0
 13 12  1  0  0  0
 12  1  1  0  0  0
  1  2  1  0  0  0
  2  3  1  0  0  0
  3  4  1  0  0  0
  4  5  1  0  0  0
  5  6  1  0  0  0
  6  7  1  0  0  0
  7  8  1  0  0  0
  8  9  1  0  0  0
  9 10  1  0  0  0
 10 11  1  0  0  0
M  END
> <minimizedAffinity>
-6.84640

> <CNNscore>
0.8899260163

> <CNNaffinity>
6.9184312820

> <CNN_VS>
6.1568918228

> <CNNaffinity_variance>
0.8169108629

$$$$
/media/chris/experiments/cd1a-new-docking/inputs/ligands/4x6d_1_ligand.pdb


 21 20  0  0  0  0  0  0  0  0999 V2000
  -48.2929   58.2626   65.5176 C   0  0  0  0  0  0  0  0  0  0  0  0
  -49.5905   58.2918   64.7487 C   0  0  0  0  0  0  0  0  0  0  0  0
  -50.1907   59.5794   64.3736 C   0  0  0  0  0  0  0  0  0  0  0  0
  -50.6653   59.8157   62.9571 C   0  0  0  0  0  0  0  0  0  0  0  0
  -49.5473   60.4387   62.1219 C   0  0  0  0  0  0  0  0  0  0  0  0
  -49.2857   59.6933   60.8159 C   0  0  0  0  0  0  0  0  0  0  0  0
  -48.9769   58.2142   61.0633 C   0  0  0  0  0  0  0  0  0  0  0  0
  -47.9535   57.5990   60.1012 C   0  0  0  0  0  0  0  0  0  0  0  0
  -47.8120   58.4131   58.8083 C   0  0  0  0  0  0  0  0  0  0  0  0
  -46.8693   57.7556   57.7970 C   0  0  0  0  0  0  0  0  0  0  0  0
  -47.6002   57.1105   56.6132 C   0  0  0  0  0  0  0  0  0  0  0  0
  -47.2134   58.8401   64.6165 C   0  0  0  0  0  0  0  0  0  0  0  0
  -46.5140   60.0237   65.2607 C   0  0  0  0  0  0  0  0  0  0  0  0
  -45.6233   59.5746   66.4152 C   0  0  0  0  0  0  0  0  0  0  0  0
  -44.2757   59.1041   65.8859 C   0  0  0  0  0  0  0  0  0  0  0  0
  -43.3445   60.2818   65.6451 C   0  0  0  0  0  0  0  0  0  0  0  0
  -42.3418   60.4317   66.7847 C   0  0  0  0  0  0  0  0  0  0  0  0
  -41.0170   60.9259   66.2372 C   0  0  0  0  0  0  0  0  0  0  0  0
  -40.1653   60.1052   65.8096 O   0  0  0  0  0  0  0  0  0  0  0  0
  -40.7584   62.1569   66.2108 O   0  0  0  0  0  0  0  0  0  0  0  0
  -41.3878   62.7747   66.5276 H   0  0  0  0  0  0  0  0  0  0  0  0
 18 19  2  0  0  0
 18 17  1  0  0  0
 18 20  1  0  0  0
 17 16  1  0  0  0
 20 21  1  0  0  0
 16 15  1  0  0  0
 15 14  1  0  0  0
 14 13  1  0  0  0
 13 12  1  0  0  0
 12  1  1  0  0  0
  1  2  1  0  0  0
  2  3  1  0  0  0
  3  4  1  0  0  0
  4  5  1  0  0  0
  5  6  1  0  0  0
  6  7  1  0  0  0
  7  8  1  0  0  0
  8  9  1  0  0  0
  9 10  1  0  0  0
 10 11  1  0  0  0
M  END
> <minimizedAffinity>
-6.98114

> <CNNscore>
0.8287878633

> <CNNaffinity>
6.6818580627

> <CNN_VS>
5.5378427505

> <CNNaffinity_variance>
0.3474376500

$$$$
/media/chris/experiments/cd1a-new-docking/inputs/ligands/4x6d_1_ligand.pdb


 21 20  0  0  0  0  0  0  0  0999 V2000
  -45.4243   60.0024   65.3395 C   0  0  0  0  0  0  0  0  0  0  0  0
  -46.8520   60.3424   65.6888 C   0  0  0  0  0  0  0  0  0  0  0  0
  -47.7251   60.9605   64.6815 C   0  0  0  0  0  0  0  0  0  0  0  0
  -49.1249   60.4330   64.4589 C   0  0  0  0  0  0  0  0  0  0  0  0
  -49.1325   58.9065   64.5314 C   0  0  0  0  0  0  0  0  0  0  0  0
  -49.0286   58.2390   63.1627 C   0  0  0  0  0  0  0  0  0  0  0  0
  -50.3143   58.4160   62.3503 C   0  0  0  0  0  0  0  0  0  0  0  0
  -50.1435   58.2745   60.8330 C   0  0  0  0  0  0  0  0  0  0  0  0
  -49.8651   56.8248   60.4143 C   0  0  0  0  0  0  0  0  0  0  0  0
  -48.6103   56.6914   59.5476 C   0  0  0  0  0  0  0  0  0  0  0  0
  -47.9373   58.0345   59.2395 C   0  0  0  0  0  0  0  0  0  0  0  0
  -44.8160   59.2927   66.5383 C   0  0  0  0  0  0  0  0  0  0  0  0
  -43.4646   59.8745   66.9128 C   0  0  0  0  0  0  0  0  0  0  0  0
  -42.3575   58.8356   66.7619 C   0  0  0  0  0  0  0  0  0  0  0  0
  -42.0179   58.6407   65.2908 C   0  0  0  0  0  0  0  0  0  0  0  0
  -40.5208   58.7680   65.0565 C   0  0  0  0  0  0  0  0  0  0  0  0
  -39.9248   59.8871   65.9043 C   0  0  0  0  0  0  0  0  0  0  0  0
  -40.2632   61.2303   65.2875 C   0  0  0  0  0  0  0  0  0  0  0  0
  -40.7847   62.1338   65.9898 O   0  0  0  0  0  0  0  0  0  0  0  0
  -40.0296   61.4489   64.0707 O   0  0  0  0  0  0  0  0  0  0  0  0
  -39.6412   60.7809   63.5407 H   0  0  0  0  0  0  0  0  0  0  0  0
 18 19  2  0  0  0
 18 17  1  0  0  0
 18 20  1  0  0  0
 17 16  1  0  0  0
 20 21  1  0  0  0
 16 15  1  0  0  0
 15 14  1  0  0  0
 14 13  1  0  0  0
 13 12  1  0  0  0
 12  1  1  0  0  0
  1  2  1  0  0  0
  2  3  1  0  0  0
  3  4  1  0  0  0
  4  5  1  0  0  0
  5  6  1  0  0  0
  6  7  1  0  0  0
  7  8  1  0  0  0
  8  9  1  0  0  0
  9 10  1  0  0  0
 10 11  1  0  0  0
M  END
> <minimizedAffinity>
-6.65372

> <CNNscore>
0.8251627684

> <CNNaffinity>
6.5877609253

> <CNN_VS>
5.4359750748

> <CNNaffinity_variance>
0.5104869604

$$$$
/media/chris/experiments/cd1a-new-docking/inputs/ligands/4x6d_1_ligand.pdb


 21 20  0  0  0  0  0  0  0  0999 V2000
  -46.0013   57.5688   65.1702 C   0  0  0  0  0  0  0  0  0  0  0  0
  -47.1522   58.5274   65.3505 C   0  0  0  0  0  0  0  0  0  0  0  0
  -48.4123   58.0559   65.9411 C   0  0  0  0  0  0  0  0  0  0  0  0
  -49.7230   58.2804   65.2207 C   0  0  0  0  0  0  0  0  0  0  0  0
  -50.2951   59.6516   65.5788 C   0  0  0  0  0  0  0  0  0  0  0  0
  -50.7305   60.4587   64.3586 C   0  0  0  0  0  0  0  0  0  0  0  0
  -49.7214   60.3377   63.2135 C   0  0  0  0  0  0  0  0  0  0  0  0
  -50.2330   59.5848   61.9794 C   0  0  0  0  0  0  0  0  0  0  0  0
  -49.2160   59.5976   60.8306 C   0  0  0  0  0  0  0  0  0  0  0  0
  -48.6156   58.2159   60.5585 C   0  0  0  0  0  0  0  0  0  0  0  0
  -47.9582   58.0985   59.1779 C   0  0  0  0  0  0  0  0  0  0  0  0
  -44.7248   58.3134   65.5269 C   0  0  0  0  0  0  0  0  0  0  0  0
  -44.8056   59.7828   65.1537 C   0  0  0  0  0  0  0  0  0  0  0  0
  -43.4372   60.4509   65.2501 C   0  0  0  0  0  0  0  0  0  0  0  0
  -42.8541   60.6553   63.8588 C   0  0  0  0  0  0  0  0  0  0  0  0
  -41.6282   61.5535   63.9092 C   0  0  0  0  0  0  0  0  0  0  0  0
  -40.3433   60.7345   63.8392 C   0  0  0  0  0  0  0  0  0  0  0  0
  -39.8022   60.5133   65.2383 C   0  0  0  0  0  0  0  0  0  0  0  0
  -39.7874   61.4599   66.0662 O   0  0  0  0  0  0  0  0  0  0  0  0
  -39.3609   59.3854   65.5792 O   0  0  0  0  0  0  0  0  0  0  0  0
  -39.3685   58.6751   64.9681 H   0  0  0  0  0  0  0  0  0  0  0  0
 18 19  2  0  0  0
 18 17  1  0  0  0
 18 20  1  0  0  0
 17 16  1  0  0  0
 20 21  1  0  0  0
 16 15  1  0  0  0
 15 14  1  0  0  0
 14 13  1  0  0  0
 13 12  1  0  0  0
 12  1  1  0  0  0
  1  2  1  0  0  0
  2  3  1  0  0  0
  3  4  1  0  0  0
  4  5  1  0  0  0
  5  6  1  0  0  0
  6  7  1  0  0  0
  7  8  1  0  0  0
  8  9  1  0  0  0
  9 10  1  0  0  0
 10 11  1  0  0  0
M  END
> <minimizedAffinity>
-6.35879

> <CNNscore>
0.6975824237

> <CNNaffinity>
6.5538034439

> <CNN_VS>
4.5718178749

> <CNNaffinity_variance>
0.6599725485

$$$$
/media/chris/experiments/cd1a-new-docking/inputs/ligands/4x6d_1_ligand.pdb


 21 20  0  0  0  0  0  0  0  0999 V2000
  -43.3045   57.5338   65.5825 C   0  0  0  0  0  0  0  0  0  0  0  0
  -44.7083   57.1200   65.2163 C   0  0  0  0  0  0  0  0  0  0  0  0
  -45.8270   57.4563   66.1076 C   0  0  0  0  0  0  0  0  0  0  0  0
  -47.2506   57.3962   65.6004 C   0  0  0  0  0  0  0  0  0  0  0  0
  -47.4443   58.3838   64.4504 C   0  0  0  0  0  0  0  0  0  0  0  0
  -48.7483   59.1712   64.5473 C   0  0  0  0  0  0  0  0  0  0  0  0
  -49.5819   59.0404   63.2696 C   0  0  0  0  0  0  0  0  0  0  0  0
  -49.3990   60.1803   62.2603 C   0  0  0  0  0  0  0  0  0  0  0  0
  -49.4039   59.6766   60.8109 C   0  0  0  0  0  0  0  0  0  0  0  0
  -48.6813   58.3367   60.6494 C   0  0  0  0  0  0  0  0  0  0  0  0
  -47.9792   58.1828   59.2947 C   0  0  0  0  0  0  0  0  0  0  0  0
  -43.4086   58.7178   66.5304 C   0  0  0  0  0  0  0  0  0  0  0  0
  -42.0418   59.2068   66.9749 C   0  0  0  0  0  0  0  0  0  0  0  0
  -41.9162   60.7179   66.8053 C   0  0  0  0  0  0  0  0  0  0  0  0
  -40.7863   61.0453   65.8391 C   0  0  0  0  0  0  0  0  0  0  0  0
  -41.2848   61.9100   64.6919 C   0  0  0  0  0  0  0  0  0  0  0  0
  -42.0926   61.0868   63.6937 C   0  0  0  0  0  0  0  0  0  0  0  0
  -41.6366   61.4042   62.2829 C   0  0  0  0  0  0  0  0  0  0  0  0
  -40.5447   60.9496   61.8553 O   0  0  0  0  0  0  0  0  0  0  0  0
  -42.3429   62.1265   61.5329 O   0  0  0  0  0  0  0  0  0  0  0  0
  -43.1577   62.4690   61.8441 H   0  0  0  0  0  0  0  0  0  0  0  0
 18 19  2  0  0  0
 18 17  1  0  0  0
 18 20  1  0  0  0
 17 16  1  0  0  0
 20 21  1  0  0  0
 16 15  1  0  0  0
 15 14  1  0  0  0
 14 13  1  0  0  0
 13 12  1  0  0  0
 12  1  1  0  0  0
  1  2  1  0  0  0
  2  3  1  0  0  0
  3  4  1  0  0  0
  4  5  1  0  0  0
  5  6  1  0  0  0
  6  7  1  0  0  0
  7  8  1  0  0  0
  8  9  1  0  0  0
  9 10  1  0  0  0
 10 11  1  0  0  0
M  END
> <minimizedAffinity>
-6.38669

> <CNNscore>
0.6834222674

> <CNNaffinity>
6.3212423325

> <CNN_VS>
4.3200778961

> <CNNaffinity_variance>
0.4796039164

$$$$
/media/chris/experiments/cd1a-new-docking/inputs/ligands/4x6d_1_ligand.pdb


 21 20  0  0  0  0  0  0  0  0999 V2000
  -47.3651   60.9552   65.0325 C   0  0  0  0  0  0  0  0  0  0  0  0
  -48.2018   60.3440   66.1290 C   0  0  0  0  0  0  0  0  0  0  0  0
  -49.5466   59.8349   65.8266 C   0  0  0  0  0  0  0  0  0  0  0  0
  -49.7343   58.4102   65.3549 C   0  0  0  0  0  0  0  0  0  0  0  0
  -49.3408   58.2842   63.8835 C   0  0  0  0  0  0  0  0  0  0  0  0
  -50.2899   59.0207   62.9420 C   0  0  0  0  0  0  0  0  0  0  0  0
  -49.5929   60.1894   62.2400 C   0  0  0  0  0  0  0  0  0  0  0  0
  -49.3601   59.9931   60.7370 C   0  0  0  0  0  0  0  0  0  0  0  0
  -49.5279   58.5285   60.3116 C   0  0  0  0  0  0  0  0  0  0  0  0
  -48.1888   57.8272   60.0692 C   0  0  0  0  0  0  0  0  0  0  0  0
  -47.5916   58.1159   58.6865 C   0  0  0  0  0  0  0  0  0  0  0  0
  -45.9484   60.4264   65.1887 C   0  0  0  0  0  0  0  0  0  0  0  0
  -45.9149   58.9095   65.2428 C   0  0  0  0  0  0  0  0  0  0  0  0
  -44.7827   58.4159   66.1385 C   0  0  0  0  0  0  0  0  0  0  0  0
  -43.4379   58.8467   65.5698 C   0  0  0  0  0  0  0  0  0  0  0  0
  -42.3947   58.9652   66.6698 C   0  0  0  0  0  0  0  0  0  0  0  0
  -42.0633   60.4259   66.9581 C   0  0  0  0  0  0  0  0  0  0  0  0
  -40.7918   60.8142   66.2290 C   0  0  0  0  0  0  0  0  0  0  0  0
  -40.0521   59.9260   65.7333 O   0  0  0  0  0  0  0  0  0  0  0  0
  -40.4656   62.0244   66.1186 O   0  0  0  0  0  0  0  0  0  0  0  0
  -41.0114   62.6921   66.4852 H   0  0  0  0  0  0  0  0  0  0  0  0
 18 19  2  0  0  0
 18 17  1  0  0  0
 18 20  1  0  0  0
 17 16  1  0  0  0
 20 21  1  0  0  0
 16 15  1  0  0  0
 15 14  1  0  0  0
 14 13  1  0  0  0
 13 12  1  0  0  0
 12  1  1  0  0  0
  1  2  1  0  0  0
  2  3  1  0  0  0
  3  4  1  0  0  0
  4  5  1  0  0  0
  5  6  1  0  0  0
  6  7  1  0  0  0
  7  8  1  0  0  0
  8  9  1  0  0  0
  9 10  1  0  0  0
 10 11  1  0  0  0
M  END
> <minimizedAffinity>
-6.87417

> <CNNscore>
0.6679376960

> <CNNaffinity>
6.3729887009

> <CNN_VS>
4.2567591667

> <CNNaffinity_variance>
0.3903324306

$$$$
/media/chris/experiments/cd1a-new-docking/inputs/ligands/4x6d_1_ligand.pdb


 21 20  0  0  0  0  0  0  0  0999 V2000
  -46.3419   58.8218   67.2127 C   0  0  0  0  0  0  0  0  0  0  0  0
  -46.4127   57.4825   66.5222 C   0  0  0  0  0  0  0  0  0  0  0  0
  -47.6455   57.0785   65.8322 C   0  0  0  0  0  0  0  0  0  0  0  0
  -48.2745   57.9876   64.8000 C   0  0  0  0  0  0  0  0  0  0  0  0
  -49.7116   58.3236   65.1968 C   0  0  0  0  0  0  0  0  0  0  0  0
  -49.9479   59.8191   65.3901 C   0  0  0  0  0  0  0  0  0  0  0  0
  -51.0296   60.3457   64.4431 C   0  0  0  0  0  0  0  0  0  0  0  0
  -51.1778   59.5621   63.1333 C   0  0  0  0  0  0  0  0  0  0  0  0
  -50.1140   59.9554   62.0998 C   0  0  0  0  0  0  0  0  0  0  0  0
  -49.4711   58.7417   61.4236 C   0  0  0  0  0  0  0  0  0  0  0  0
  -48.7404   59.0867   60.1202 C   0  0  0  0  0  0  0  0  0  0  0  0
  -45.0075   59.4538   66.8505 C   0  0  0  0  0  0  0  0  0  0  0  0
  -44.9643   59.8863   65.3958 C   0  0  0  0  0  0  0  0  0  0  0  0
  -43.5291   60.1211   64.9342 C   0  0  0  0  0  0  0  0  0  0  0  0
  -42.7275   58.8310   65.0362 C   0  0  0  0  0  0  0  0  0  0  0  0
  -41.5437   58.9987   65.9758 C   0  0  0  0  0  0  0  0  0  0  0  0
  -40.2471   59.1949   65.1969 C   0  0  0  0  0  0  0  0  0  0  0  0
  -39.9418   60.6754   65.0786 C   0  0  0  0  0  0  0  0  0  0  0  0
  -39.8077   61.3769   66.1138 O   0  0  0  0  0  0  0  0  0  0  0  0
  -39.8251   61.2129   63.9470 O   0  0  0  0  0  0  0  0  0  0  0  0
  -39.9236   60.6971   63.1709 H   0  0  0  0  0  0  0  0  0  0  0  0
 18 19  2  0  0  0
 18 17  1  0  0  0
 18 20  1  0  0  0
 17 16  1  0  0  0
 20 21  1  0  0  0
 16 15  1  0  0  0
 15 14  1  0  0  0
 14 13  1  0  0  0
 13 12  1  0  0  0
 12  1  1  0  0  0
  1  2  1  0  0  0
  2  3  1  0  0  0
  3  4  1  0  0  0
  4  5  1  0  0  0
  5  6  1  0  0  0
  6  7  1  0  0  0
  7  8  1  0  0  0
  8  9  1  0  0  0
  9 10  1  0  0  0
 10 11  1  0  0  0
M  END
> <minimizedAffinity>
-6.74880

> <CNNscore>
0.6659832597

> <CNNaffinity>
6.4338312149

> <CNN_VS>
4.2848238945

> <CNNaffinity_variance>
0.3206456304

$$$$
