/media/chris/experiments/cd1a-new-docking/inputs/ligands/4x6d_1_ligand.pdb


 21 20  0  0  0  0  0  0  0  0999 V2000
  -45.7172   59.1220   65.2577 C   0  0  0  0  0  0  0  0  0  0  0  0
  -46.9715   59.4549   66.0269 C   0  0  0  0  0  0  0  0  0  0  0  0
  -48.2875   59.1459   65.4511 C   0  0  0  0  0  0  0  0  0  0  0  0
  -48.6292   59.5925   64.0471 C   0  0  0  0  0  0  0  0  0  0  0  0
  -48.7923   58.3799   63.1314 C   0  0  0  0  0  0  0  0  0  0  0  0
  -48.8497   58.7476   61.6511 C   0  0  0  0  0  0  0  0  0  0  0  0
  -49.6906   57.7467   60.8541 C   0  0  0  0  0  0  0  0  0  0  0  0
  -49.0842   57.3186   59.5123 C   0  0  0  0  0  0  0  0  0  0  0  0
  -47.6118   57.7310   59.3843 C   0  0  0  0  0  0  0  0  0  0  0  0
  -47.2010   58.0108   57.9363 C   0  0  0  0  0  0  0  0  0  0  0  0
  -47.8836   57.0870   56.9203 C   0  0  0  0  0  0  0  0  0  0  0  0
  -45.4424   57.6391   65.4493 C   0  0  0  0  0  0  0  0  0  0  0  0
  -44.1356   57.2189   64.8004 C   0  0  0  0  0  0  0  0  0  0  0  0
  -42.9681   57.3617   65.7722 C   0  0  0  0  0  0  0  0  0  0  0  0
  -42.1413   58.5910   65.4218 C   0  0  0  0  0  0  0  0  0  0  0  0
  -41.6583   59.2982   66.6784 C   0  0  0  0  0  0  0  0  0  0  0  0
  -41.8978   60.8019   66.5896 C   0  0  0  0  0  0  0  0  0  0  0  0
  -40.7783   61.4512   65.7995 C   0  0  0  0  0  0  0  0  0  0  0  0
  -39.5830   61.3061   66.1629 O   0  0  0  0  0  0  0  0  0  0  0  0
  -41.0362   62.1420   64.7800 O   0  0  0  0  0  0  0  0  0  0  0  0
  -41.9241   62.2548   64.5030 H   0  0  0  0  0  0  0  0  0  0  0  0
 18 19  2  0  0  0
 18 17  1  0  0  0
 18 20  1  0  0  0
 17 16  1  0  0  0
 20 21  1  0  0  0
 16 15  1  0  0  0
 15 14  1  0  0  0
 14 13  1  0  0  0
 13 12  1  0  0  0
 12  1  1  0  0  0
  1  2  1  0  0  0
  2  3  1  0  0  0
  3  4  1  0  0  0
  4  5  1  0  0  0
  5  6  1  0  0  0
  6  7  1  0  0  0
  7  8  1  0  0  0
  8  9  1  0  0  0
  9 10  1  0  0  0
 10 11  1  0  0  0
M  END
> <minimizedAffinity>
-6.77749

> <CNNscore>
0.9275782108

> <CNNaffinity>
6.9042878151

> <CNN_VS>
6.4042668343

> <CNNaffinity_variance>
0.6504040956

$$$$
/media/chris/experiments/cd1a-new-docking/inputs/ligands/4x6d_1_ligand.pdb


 21 20  0  0  0  0  0  0  0  0999 V2000
  -47.3614   59.0370   64.3994 C   0  0  0  0  0  0  0  0  0  0  0  0
  -48.6041   58.3817   63.8496 C   0  0  0  0  0  0  0  0  0  0  0  0
  -49.2841   58.9632   62.6841 C   0  0  0  0  0  0  0  0  0  0  0  0
  -50.7176   58.5931   62.3747 C   0  0  0  0  0  0  0  0  0  0  0  0
  -50.7645   57.5326   61.2753 C   0  0  0  0  0  0  0  0  0  0  0  0
  -50.2876   58.0493   59.9206 C   0  0  0  0  0  0  0  0  0  0  0  0
  -49.1780   57.1683   59.3403 C   0  0  0  0  0  0  0  0  0  0  0  0
  -47.8057   57.8445   59.2350 C   0  0  0  0  0  0  0  0  0  0  0  0
  -47.1992   57.7084   57.8322 C   0  0  0  0  0  0  0  0  0  0  0  0
  -48.0745   56.8791   56.8887 C   0  0  0  0  0  0  0  0  0  0  0  0
  -47.4649   55.5182   56.5312 C   0  0  0  0  0  0  0  0  0  0  0  0
  -46.4889   57.9412   64.9901 C   0  0  0  0  0  0  0  0  0  0  0  0
  -45.2349   58.5042   65.6347 C   0  0  0  0  0  0  0  0  0  0  0  0
  -45.0279   59.9662   65.2506 C   0  0  0  0  0  0  0  0  0  0  0  0
  -43.5805   60.2014   64.8417 C   0  0  0  0  0  0  0  0  0  0  0  0
  -42.6675   60.2184   66.0576 C   0  0  0  0  0  0  0  0  0  0  0  0
  -41.2253   59.9122   65.6667 C   0  0  0  0  0  0  0  0  0  0  0  0
  -40.3598   61.1328   65.9119 C   0  0  0  0  0  0  0  0  0  0  0  0
  -39.1320   60.9985   66.1489 O   0  0  0  0  0  0  0  0  0  0  0  0
  -40.8629   62.2858   65.8848 O   0  0  0  0  0  0  0  0  0  0  0  0
  -41.7768   62.3941   65.7090 H   0  0  0  0  0  0  0  0  0  0  0  0
 18 19  2  0  0  0
 18 17  1  0  0  0
 18 20  1  0  0  0
 17 16  1  0  0  0
 20 21  1  0  0  0
 16 15  1  0  0  0
 15 14  1  0  0  0
 14 13  1  0  0  0
 13 12  1  0  0  0
 12  1  1  0  0  0
  1  2  1  0  0  0
  2  3  1  0  0  0
  3  4  1  0  0  0
  4  5  1  0  0  0
  5  6  1  0  0  0
  6  7  1  0  0  0
  7  8  1  0  0  0
  8  9  1  0  0  0
  9 10  1  0  0  0
 10 11  1  0  0  0
M  END
> <minimizedAffinity>
-7.23403

> <CNNscore>
0.9219518900

> <CNNaffinity>
6.8797340393

> <CNN_VS>
6.3427839279

> <CNNaffinity_variance>
0.4491053522

$$$$
/media/chris/experiments/cd1a-new-docking/inputs/ligands/4x6d_1_ligand.pdb


 21 20  0  0  0  0  0  0  0  0999 V2000
  -47.2333   57.9265   65.1640 C   0  0  0  0  0  0  0  0  0  0  0  0
  -47.4138   59.2485   65.8680 C   0  0  0  0  0  0  0  0  0  0  0  0
  -48.7558   59.8332   65.9953 C   0  0  0  0  0  0  0  0  0  0  0  0
  -49.9681   59.0732   65.5053 C   0  0  0  0  0  0  0  0  0  0  0  0
  -50.8797   59.9959   64.6971 C   0  0  0  0  0  0  0  0  0  0  0  0
  -50.6202   59.9321   63.1944 C   0  0  0  0  0  0  0  0  0  0  0  0
  -50.0594   58.5700   62.7767 C   0  0  0  0  0  0  0  0  0  0  0  0
  -50.8647   57.8459   61.6911 C   0  0  0  0  0  0  0  0  0  0  0  0
  -50.1933   57.9368   60.3144 C   0  0  0  0  0  0  0  0  0  0  0  0
  -48.7530   58.4499   60.3931 C   0  0  0  0  0  0  0  0  0  0  0  0
  -47.8643   57.9477   59.2486 C   0  0  0  0  0  0  0  0  0  0  0  0
  -45.8852   57.3639   65.5849 C   0  0  0  0  0  0  0  0  0  0  0  0
  -44.8165   57.6154   64.5361 C   0  0  0  0  0  0  0  0  0  0  0  0
  -43.8881   58.7502   64.9579 C   0  0  0  0  0  0  0  0  0  0  0  0
  -42.6527   58.1884   65.6477 C   0  0  0  0  0  0  0  0  0  0  0  0
  -41.3919   58.8807   65.1545 C   0  0  0  0  0  0  0  0  0  0  0  0
  -40.8354   59.8285   66.2120 C   0  0  0  0  0  0  0  0  0  0  0  0
  -40.4818   61.1567   65.5718 C   0  0  0  0  0  0  0  0  0  0  0  0
  -40.6245   62.2264   66.2176 O   0  0  0  0  0  0  0  0  0  0  0  0
  -40.0486   61.1991   64.3912 O   0  0  0  0  0  0  0  0  0  0  0  0
  -39.9395   60.4065   63.9035 H   0  0  0  0  0  0  0  0  0  0  0  0
 18 19  2  0  0  0
 18 17  1  0  0  0
 18 20  1  0  0  0
 17 16  1  0  0  0
 20 21  1  0  0  0
 16 15  1  0  0  0
 15 14  1  0  0  0
 14 13  1  0  0  0
 13 12  1  0  0  0
 12  1  1  0  0  0
  1  2  1  0  0  0
  2  3  1  0  0  0
  3  4  1  0  0  0
  4  5  1  0  0  0
  5  6  1  0  0  0
  6  7  1  0  0  0
  7  8  1  0  0  0
  8  9  1  0  0  0
  9 10  1  0  0  0
 10 11  1  0  0  0
M  END
> <minimizedAffinity>
-6.88953

> <CNNscore>
0.9054148197

> <CNNaffinity>
6.9348449707

> <CNN_VS>
6.2789115906

> <CNNaffinity_variance>
0.6419515014

$$$$
/media/chris/experiments/cd1a-new-docking/inputs/ligands/4x6d_1_ligand.pdb


 21 20  0  0  0  0  0  0  0  0999 V2000
  -45.0654   58.1306   64.7848 C   0  0  0  0  0  0  0  0  0  0  0  0
  -46.4423   57.7869   65.2964 C   0  0  0  0  0  0  0  0  0  0  0  0
  -47.6286   58.3709   64.6555 C   0  0  0  0  0  0  0  0  0  0  0  0
  -48.6498   59.1211   65.4813 C   0  0  0  0  0  0  0  0  0  0  0  0
  -50.0630   58.7875   65.0052 C   0  0  0  0  0  0  0  0  0  0  0  0
  -50.6855   59.8887   64.1510 C   0  0  0  0  0  0  0  0  0  0  0  0
  -51.1027   59.3656   62.7739 C   0  0  0  0  0  0  0  0  0  0  0  0
  -50.5066   58.0051   62.3926 C   0  0  0  0  0  0  0  0  0  0  0  0
  -50.8657   57.5973   60.9576 C   0  0  0  0  0  0  0  0  0  0  0  0
  -49.6577   57.0820   60.1708 C   0  0  0  0  0  0  0  0  0  0  0  0
  -48.6166   58.1679   59.8732 C   0  0  0  0  0  0  0  0  0  0  0  0
  -44.1012   57.0891   65.3297 C   0  0  0  0  0  0  0  0  0  0  0  0
  -42.9384   57.7281   66.0679 C   0  0  0  0  0  0  0  0  0  0  0  0
  -43.3250   59.0947   66.6253 C   0  0  0  0  0  0  0  0  0  0  0  0
  -42.0818   59.9502   66.8260 C   0  0  0  0  0  0  0  0  0  0  0  0
  -41.0004   59.5825   65.8223 C   0  0  0  0  0  0  0  0  0  0  0  0
  -39.7661   60.4613   65.9972 C   0  0  0  0  0  0  0  0  0  0  0  0
  -38.6074   59.8757   65.2140 C   0  0  0  0  0  0  0  0  0  0  0  0
  -38.4522   58.6291   65.1540 O   0  0  0  0  0  0  0  0  0  0  0  0
  -37.7918   60.6305   64.6238 O   0  0  0  0  0  0  0  0  0  0  0  0
  -37.9006   61.5602   64.6638 H   0  0  0  0  0  0  0  0  0  0  0  0
 18 19  2  0  0  0
 18 17  1  0  0  0
 18 20  1  0  0  0
 17 16  1  0  0  0
 20 21  1  0  0  0
 16 15  1  0  0  0
 15 14  1  0  0  0
 14 13  1  0  0  0
 13 12  1  0  0  0
 12  1  1  0  0  0
  1  2  1  0  0  0
  2  3  1  0  0  0
  3  4  1  0  0  0
  4  5  1  0  0  0
  5  6  1  0  0  0
  6  7  1  0  0  0
  7  8  1  0  0  0
  8  9  1  0  0  0
  9 10  1  0  0  0
 10 11  1  0  0  0
M  END
> <minimizedAffinity>
-6.57658

> <CNNscore>
0.8330227137

> <CNNaffinity>
6.6462769508

> <CNN_VS>
5.5364995003

> <CNNaffinity_variance>
0.5245631933

$$$$
/media/chris/experiments/cd1a-new-docking/inputs/ligands/4x6d_1_ligand.pdb


 21 20  0  0  0  0  0  0  0  0999 V2000
  -45.0506   58.1415   64.8227 C   0  0  0  0  0  0  0  0  0  0  0  0
  -46.4112   57.8012   65.3785 C   0  0  0  0  0  0  0  0  0  0  0  0
  -47.6205   58.3135   64.7196 C   0  0  0  0  0  0  0  0  0  0  0  0
  -48.6438   59.0993   65.5087 C   0  0  0  0  0  0  0  0  0  0  0  0
  -50.0552   58.7556   65.0343 C   0  0  0  0  0  0  0  0  0  0  0  0
  -50.6911   59.8573   64.1907 C   0  0  0  0  0  0  0  0  0  0  0  0
  -51.1065   59.3412   62.8104 C   0  0  0  0  0  0  0  0  0  0  0  0
  -50.4476   58.0220   62.3895 C   0  0  0  0  0  0  0  0  0  0  0  0
  -50.8656   57.5907   60.9775 C   0  0  0  0  0  0  0  0  0  0  0  0
  -49.6904   57.0650   60.1489 C   0  0  0  0  0  0  0  0  0  0  0  0
  -48.6092   58.1205   59.8877 C   0  0  0  0  0  0  0  0  0  0  0  0
  -44.0427   57.2100   65.4767 C   0  0  0  0  0  0  0  0  0  0  0  0
  -42.8106   57.9577   65.9544 C   0  0  0  0  0  0  0  0  0  0  0  0
  -43.1892   59.2909   66.5924 C   0  0  0  0  0  0  0  0  0  0  0  0
  -42.2670   60.3933   66.0905 C   0  0  0  0  0  0  0  0  0  0  0  0
  -41.9298   60.1937   64.6212 C   0  0  0  0  0  0  0  0  0  0  0  0
  -42.9348   60.9091   63.7243 C   0  0  0  0  0  0  0  0  0  0  0  0
  -42.2696   62.0983   63.0593 C   0  0  0  0  0  0  0  0  0  0  0  0
  -41.4901   62.8345   63.7168 O   0  0  0  0  0  0  0  0  0  0  0  0
  -42.4952   62.3597   61.8494 O   0  0  0  0  0  0  0  0  0  0  0  0
  -43.0747   61.8160   61.3529 H   0  0  0  0  0  0  0  0  0  0  0  0
 18 19  2  0  0  0
 18 17  1  0  0  0
 18 20  1  0  0  0
 17 16  1  0  0  0
 20 21  1  0  0  0
 16 15  1  0  0  0
 15 14  1  0  0  0
 14 13  1  0  0  0
 13 12  1  0  0  0
 12  1  1  0  0  0
  1  2  1  0  0  0
  2  3  1  0  0  0
  3  4  1  0  0  0
  4  5  1  0  0  0
  5  6  1  0  0  0
  6  7  1  0  0  0
  7  8  1  0  0  0
  8  9  1  0  0  0
  9 10  1  0  0  0
 10 11  1  0  0  0
M  END
> <minimizedAffinity>
-6.64143

> <CNNscore>
0.7818285227

> <CNNaffinity>
6.6044244766

> <CNN_VS>
5.1635274887

> <CNNaffinity_variance>
0.5903667212

$$$$
/media/chris/experiments/cd1a-new-docking/inputs/ligands/4x6d_1_ligand.pdb


 21 20  0  0  0  0  0  0  0  0999 V2000
  -48.4043   59.5792   63.6437 C   0  0  0  0  0  0  0  0  0  0  0  0
  -49.6541   60.2763   63.1664 C   0  0  0  0  0  0  0  0  0  0  0  0
  -50.6209   59.5539   62.3283 C   0  0  0  0  0  0  0  0  0  0  0  0
  -50.5864   58.0437   62.2535 C   0  0  0  0  0  0  0  0  0  0  0  0
  -50.6740   57.5841   60.7987 C   0  0  0  0  0  0  0  0  0  0  0  0
  -49.6555   58.2671   59.8899 C   0  0  0  0  0  0  0  0  0  0  0  0
  -48.2475   57.7028   60.0973 C   0  0  0  0  0  0  0  0  0  0  0  0
  -47.4470   57.4759   58.8091 C   0  0  0  0  0  0  0  0  0  0  0  0
  -47.3338   55.9878   58.4523 C   0  0  0  0  0  0  0  0  0  0  0  0
  -47.9179   55.6653   57.0743 C   0  0  0  0  0  0  0  0  0  0  0  0
  -47.9204   56.8643   56.1182 C   0  0  0  0  0  0  0  0  0  0  0  0
  -47.8958   60.3337   64.8616 C   0  0  0  0  0  0  0  0  0  0  0  0
  -48.1749   59.5799   66.1496 C   0  0  0  0  0  0  0  0  0  0  0  0
  -46.8789   59.1148   66.8067 C   0  0  0  0  0  0  0  0  0  0  0  0
  -46.6592   57.6318   66.5416 C   0  0  0  0  0  0  0  0  0  0  0  0
  -45.2301   57.3647   66.0957 C   0  0  0  0  0  0  0  0  0  0  0  0
  -44.9384   58.0321   64.7557 C   0  0  0  0  0  0  0  0  0  0  0  0
  -43.7401   58.9508   64.8932 C   0  0  0  0  0  0  0  0  0  0  0  0
  -42.5902   58.4681   65.0562 O   0  0  0  0  0  0  0  0  0  0  0  0
  -43.8871   60.1997   64.8501 O   0  0  0  0  0  0  0  0  0  0  0  0
  -44.7405   60.5670   64.7290 H   0  0  0  0  0  0  0  0  0  0  0  0
 18 19  2  0  0  0
 18 17  1  0  0  0
 18 20  1  0  0  0
 17 16  1  0  0  0
 20 21  1  0  0  0
 16 15  1  0  0  0
 15 14  1  0  0  0
 14 13  1  0  0  0
 13 12  1  0  0  0
 12  1  1  0  0  0
  1  2  1  0  0  0
  2  3  1  0  0  0
  3  4  1  0  0  0
  4  5  1  0  0  0
  5  6  1  0  0  0
  6  7  1  0  0  0
  7  8  1  0  0  0
  8  9  1  0  0  0
  9 10  1  0  0  0
 10 11  1  0  0  0
M  END
> <minimizedAffinity>
-6.79078

> <CNNscore>
0.7388933897

> <CNNaffinity>
6.5429067612

> <CNN_VS>
4.8345103264

> <CNNaffinity_variance>
0.5707412362

$$$$
/media/chris/experiments/cd1a-new-docking/inputs/ligands/4x6d_1_ligand.pdb


 21 20  0  0  0  0  0  0  0  0999 V2000
  -50.3132   58.7101   63.0805 C   0  0  0  0  0  0  0  0  0  0  0  0
  -48.8220   58.8979   62.9508 C   0  0  0  0  0  0  0  0  0  0  0  0
  -47.9753   58.8864   64.1517 C   0  0  0  0  0  0  0  0  0  0  0  0
  -47.9967   57.6991   65.0883 C   0  0  0  0  0  0  0  0  0  0  0  0
  -46.5820   57.3803   65.5704 C   0  0  0  0  0  0  0  0  0  0  0  0
  -45.5157   58.2688   64.9354 C   0  0  0  0  0  0  0  0  0  0  0  0
  -44.1804   57.5332   64.7940 C   0  0  0  0  0  0  0  0  0  0  0  0
  -42.9401   58.3844   65.0917 C   0  0  0  0  0  0  0  0  0  0  0  0
  -43.1956   59.8800   64.8630 C   0  0  0  0  0  0  0  0  0  0  0  0
  -42.2389   60.4920   63.8364 C   0  0  0  0  0  0  0  0  0  0  0  0
  -42.7847   61.7653   63.1788 C   0  0  0  0  0  0  0  0  0  0  0  0
  -50.8118   58.0944   61.7830 C   0  0  0  0  0  0  0  0  0  0  0  0
  -49.7464   57.2420   61.1170 C   0  0  0  0  0  0  0  0  0  0  0  0
  -49.5832   57.6151   59.6466 C   0  0  0  0  0  0  0  0  0  0  0  0
  -48.1949   58.1900   59.4021 C   0  0  0  0  0  0  0  0  0  0  0  0
  -47.2839   57.1568   58.7579 C   0  0  0  0  0  0  0  0  0  0  0  0
  -47.1842   57.3748   57.2516 C   0  0  0  0  0  0  0  0  0  0  0  0
  -47.8359   56.2152   56.5238 C   0  0  0  0  0  0  0  0  0  0  0  0
  -49.0513   56.2729   56.2056 O   0  0  0  0  0  0  0  0  0  0  0  0
  -47.1689   55.1875   56.2377 O   0  0  0  0  0  0  0  0  0  0  0  0
  -46.2630   55.1369   56.4714 H   0  0  0  0  0  0  0  0  0  0  0  0
 18 19  2  0  0  0
 18 17  1  0  0  0
 18 20  1  0  0  0
 17 16  1  0  0  0
 20 21  1  0  0  0
 16 15  1  0  0  0
 15 14  1  0  0  0
 14 13  1  0  0  0
 13 12  1  0  0  0
 12  1  1  0  0  0
  1  2  1  0  0  0
  2  3  1  0  0  0
  3  4  1  0  0  0
  4  5  1  0  0  0
  5  6  1  0  0  0
  6  7  1  0  0  0
  7  8  1  0  0  0
  8  9  1  0  0  0
  9 10  1  0  0  0
 10 11  1  0  0  0
M  END
> <minimizedAffinity>
-7.26223

> <CNNscore>
0.7310962677

> <CNNaffinity>
6.7999391556

> <CNN_VS>
4.9714102745

> <CNNaffinity_variance>
0.2379710972

$$$$
/media/chris/experiments/cd1a-new-docking/inputs/ligands/4x6d_1_ligand.pdb


 21 20  0  0  0  0  0  0  0  0999 V2000
  -47.6240   58.5847   64.4394 C   0  0  0  0  0  0  0  0  0  0  0  0
  -49.1023   58.3266   64.5941 C   0  0  0  0  0  0  0  0  0  0  0  0
  -50.0012   59.4240   64.9771 C   0  0  0  0  0  0  0  0  0  0  0  0
  -50.7041   60.2397   63.9150 C   0  0  0  0  0  0  0  0  0  0  0  0
  -50.5915   59.5488   62.5567 C   0  0  0  0  0  0  0  0  0  0  0  0
  -49.7445   60.3279   61.5540 C   0  0  0  0  0  0  0  0  0  0  0  0
  -49.2213   59.4232   60.4352 C   0  0  0  0  0  0  0  0  0  0  0  0
  -48.6459   58.0819   60.9058 C   0  0  0  0  0  0  0  0  0  0  0  0
  -47.9486   57.3207   59.7706 C   0  0  0  0  0  0  0  0  0  0  0  0
  -47.4727   58.2442   58.6460 C   0  0  0  0  0  0  0  0  0  0  0  0
  -47.3984   57.5517   57.2798 C   0  0  0  0  0  0  0  0  0  0  0  0
  -47.1878   59.4604   65.6029 C   0  0  0  0  0  0  0  0  0  0  0  0
  -46.3471   60.6368   65.1397 C   0  0  0  0  0  0  0  0  0  0  0  0
  -44.8603   60.2956   65.1686 C   0  0  0  0  0  0  0  0  0  0  0  0
  -44.5044   59.6118   66.4813 C   0  0  0  0  0  0  0  0  0  0  0  0
  -43.0040   59.3899   66.5900 C   0  0  0  0  0  0  0  0  0  0  0  0
  -42.2892   60.6665   67.0212 C   0  0  0  0  0  0  0  0  0  0  0  0
  -40.9720   60.7890   66.2802 C   0  0  0  0  0  0  0  0  0  0  0  0
  -40.4094   59.7630   65.8193 O   0  0  0  0  0  0  0  0  0  0  0  0
  -40.4310   61.9144   66.1254 O   0  0  0  0  0  0  0  0  0  0  0  0
  -40.8438   62.6835   66.4660 H   0  0  0  0  0  0  0  0  0  0  0  0
 18 19  2  0  0  0
 18 17  1  0  0  0
 18 20  1  0  0  0
 17 16  1  0  0  0
 20 21  1  0  0  0
 16 15  1  0  0  0
 15 14  1  0  0  0
 14 13  1  0  0  0
 13 12  1  0  0  0
 12  1  1  0  0  0
  1  2  1  0  0  0
  2  3  1  0  0  0
  3  4  1  0  0  0
  4  5  1  0  0  0
  5  6  1  0  0  0
  6  7  1  0  0  0
  7  8  1  0  0  0
  8  9  1  0  0  0
  9 10  1  0  0  0
 10 11  1  0  0  0
M  END
> <minimizedAffinity>
-7.12845

> <CNNscore>
0.6984192133

> <CNNaffinity>
6.4734506607

> <CNN_VS>
4.5211825371

> <CNNaffinity_variance>
0.3566057682

$$$$
/media/chris/experiments/cd1a-new-docking/inputs/ligands/4x6d_1_ligand.pdb


 21 20  0  0  0  0  0  0  0  0999 V2000
  -45.2968   59.5092   66.0898 C   0  0  0  0  0  0  0  0  0  0  0  0
  -46.0535   60.4056   65.1413 C   0  0  0  0  0  0  0  0  0  0  0  0
  -47.4865   60.6519   65.3525 C   0  0  0  0  0  0  0  0  0  0  0  0
  -48.2860   61.4265   64.3286 C   0  0  0  0  0  0  0  0  0  0  0  0
  -49.6619   60.7891   64.1395 C   0  0  0  0  0  0  0  0  0  0  0  0
  -49.5940   59.3070   63.7808 C   0  0  0  0  0  0  0  0  0  0  0  0
  -49.8237   59.0783   62.2844 C   0  0  0  0  0  0  0  0  0  0  0  0
  -48.6892   58.3410   61.5627 C   0  0  0  0  0  0  0  0  0  0  0  0
  -48.7777   58.4927   60.0384 C   0  0  0  0  0  0  0  0  0  0  0  0
  -47.8592   57.5199   59.2942 C   0  0  0  0  0  0  0  0  0  0  0  0
  -47.1902   58.1372   58.0601 C   0  0  0  0  0  0  0  0  0  0  0  0
  -43.8303   59.5554   65.6920 C   0  0  0  0  0  0  0  0  0  0  0  0
  -42.9486   60.0150   66.8395 C   0  0  0  0  0  0  0  0  0  0  0  0
  -41.5094   59.5455   66.6494 C   0  0  0  0  0  0  0  0  0  0  0  0
  -41.3799   58.7635   65.3497 C   0  0  0  0  0  0  0  0  0  0  0  0
  -39.9232   58.6410   64.9311 C   0  0  0  0  0  0  0  0  0  0  0  0
  -39.5712   59.6668   63.8587 C   0  0  0  0  0  0  0  0  0  0  0  0
  -38.7188   59.0139   62.7880 C   0  0  0  0  0  0  0  0  0  0  0  0
  -38.4951   59.6146   61.7060 O   0  0  0  0  0  0  0  0  0  0  0  0
  -38.2340   57.8673   62.9715 O   0  0  0  0  0  0  0  0  0  0  0  0
  -38.3962   57.4133   63.7749 H   0  0  0  0  0  0  0  0  0  0  0  0
 18 19  2  0  0  0
 18 17  1  0  0  0
 18 20  1  0  0  0
 17 16  1  0  0  0
 20 21  1  0  0  0
 16 15  1  0  0  0
 15 14  1  0  0  0
 14 13  1  0  0  0
 13 12  1  0  0  0
 12  1  1  0  0  0
  1  2  1  0  0  0
  2  3  1  0  0  0
  3  4  1  0  0  0
  4  5  1  0  0  0
  5  6  1  0  0  0
  6  7  1  0  0  0
  7  8  1  0  0  0
  8  9  1  0  0  0
  9 10  1  0  0  0
 10 11  1  0  0  0
M  END
> <minimizedAffinity>
-6.52776

> <CNNscore>
0.6846110225

> <CNNaffinity>
6.4158487320

> <CNN_VS>
4.3923606873

> <CNNaffinity_variance>
0.4475960732

$$$$
