/media/chris/experiments/cd1a-new-docking/inputs/ligands/4x6d_1_ligand.pdb


 21 20  0  0  0  0  0  0  0  0999 V2000
  -47.6840   60.3205   64.8529 C   0  0  0  0  0  0  0  0  0  0  0  0
  -48.5435   59.7343   63.7605 C   0  0  0  0  0  0  0  0  0  0  0  0
  -49.7910   60.4056   63.3704 C   0  0  0  0  0  0  0  0  0  0  0  0
  -50.9162   59.6165   62.7390 C   0  0  0  0  0  0  0  0  0  0  0  0
  -50.4895   58.1646   62.5263 C   0  0  0  0  0  0  0  0  0  0  0  0
  -50.7214   57.6725   61.1003 C   0  0  0  0  0  0  0  0  0  0  0  0
  -49.4257   57.1656   60.4612 C   0  0  0  0  0  0  0  0  0  0  0  0
  -48.4872   58.2640   59.9471 C   0  0  0  0  0  0  0  0  0  0  0  0
  -47.5718   57.7635   58.8218 C   0  0  0  0  0  0  0  0  0  0  0  0
  -48.3421   57.0497   57.7079 C   0  0  0  0  0  0  0  0  0  0  0  0
  -47.6805   55.7442   57.2501 C   0  0  0  0  0  0  0  0  0  0  0  0
  -46.4581   59.4332   64.9970 C   0  0  0  0  0  0  0  0  0  0  0  0
  -45.3246   60.1482   65.7105 C   0  0  0  0  0  0  0  0  0  0  0  0
  -43.9699   59.7348   65.1430 C   0  0  0  0  0  0  0  0  0  0  0  0
  -43.2673   58.7841   66.1022 C   0  0  0  0  0  0  0  0  0  0  0  0
  -41.8987   59.3188   66.4934 C   0  0  0  0  0  0  0  0  0  0  0  0
  -41.9062   60.8419   66.5752 C   0  0  0  0  0  0  0  0  0  0  0  0
  -40.7495   61.4021   65.7705 C   0  0  0  0  0  0  0  0  0  0  0  0
  -39.5669   61.2317   66.1629 O   0  0  0  0  0  0  0  0  0  0  0  0
  -40.9638   62.0439   64.7097 O   0  0  0  0  0  0  0  0  0  0  0  0
  -41.8421   62.1751   64.4108 H   0  0  0  0  0  0  0  0  0  0  0  0
 18 19  2  0  0  0
 18 17  1  0  0  0
 18 20  1  0  0  0
 17 16  1  0  0  0
 20 21  1  0  0  0
 16 15  1  0  0  0
 15 14  1  0  0  0
 14 13  1  0  0  0
 13 12  1  0  0  0
 12  1  1  0  0  0
  1  2  1  0  0  0
  2  3  1  0  0  0
  3  4  1  0  0  0
  4  5  1  0  0  0
  5  6  1  0  0  0
  6  7  1  0  0  0
  7  8  1  0  0  0
  8  9  1  0  0  0
  9 10  1  0  0  0
 10 11  1  0  0  0
M  END
> <minimizedAffinity>
-6.98816

> <CNNscore>
0.9218290448

> <CNNaffinity>
6.8562440872

> <CNN_VS>
6.3202848434

> <CNNaffinity_variance>
0.6504042745

$$$$
/media/chris/experiments/cd1a-new-docking/inputs/ligands/4x6d_1_ligand.pdb


 21 20  0  0  0  0  0  0  0  0999 V2000
  -49.6733   59.5716   63.7670 C   0  0  0  0  0  0  0  0  0  0  0  0
  -49.4020   58.4021   64.6805 C   0  0  0  0  0  0  0  0  0  0  0  0
  -48.0528   57.8241   64.7493 C   0  0  0  0  0  0  0  0  0  0  0  0
  -47.6592   56.9431   65.9139 C   0  0  0  0  0  0  0  0  0  0  0  0
  -46.2111   57.2170   66.3183 C   0  0  0  0  0  0  0  0  0  0  0  0
  -45.3595   57.7595   65.1737 C   0  0  0  0  0  0  0  0  0  0  0  0
  -44.0488   56.9816   65.0286 C   0  0  0  0  0  0  0  0  0  0  0  0
  -42.9648   57.3477   66.0496 C   0  0  0  0  0  0  0  0  0  0  0  0
  -41.9437   58.3409   65.4792 C   0  0  0  0  0  0  0  0  0  0  0  0
  -41.6330   59.4877   66.4445 C   0  0  0  0  0  0  0  0  0  0  0  0
  -42.8647   59.9944   67.2047 C   0  0  0  0  0  0  0  0  0  0  0  0
  -50.9700   59.2838   63.0274 C   0  0  0  0  0  0  0  0  0  0  0  0
  -50.7659   58.2936   61.8948 C   0  0  0  0  0  0  0  0  0  0  0  0
  -49.6578   58.7555   60.9532 C   0  0  0  0  0  0  0  0  0  0  0  0
  -49.4806   57.7541   59.8204 C   0  0  0  0  0  0  0  0  0  0  0  0
  -48.1377   57.9427   59.1324 C   0  0  0  0  0  0  0  0  0  0  0  0
  -47.5125   56.5997   58.7695 C   0  0  0  0  0  0  0  0  0  0  0  0
  -47.7818   56.2889   57.3100 C   0  0  0  0  0  0  0  0  0  0  0  0
  -47.8493   55.0948   56.9212 O   0  0  0  0  0  0  0  0  0  0  0  0
  -47.9346   57.2207   56.4784 O   0  0  0  0  0  0  0  0  0  0  0  0
  -47.8857   58.1129   56.7603 H   0  0  0  0  0  0  0  0  0  0  0  0
 18 19  2  0  0  0
 18 17  1  0  0  0
 18 20  1  0  0  0
 17 16  1  0  0  0
 20 21  1  0  0  0
 16 15  1  0  0  0
 15 14  1  0  0  0
 14 13  1  0  0  0
 13 12  1  0  0  0
 12  1  1  0  0  0
  1  2  1  0  0  0
  2  3  1  0  0  0
  3  4  1  0  0  0
  4  5  1  0  0  0
  5  6  1  0  0  0
  6  7  1  0  0  0
  7  8  1  0  0  0
  8  9  1  0  0  0
  9 10  1  0  0  0
 10 11  1  0  0  0
M  END
> <minimizedAffinity>
-6.97926

> <CNNscore>
0.7975282073

> <CNNaffinity>
6.8218750954

> <CNN_VS>
5.4406375885

> <CNNaffinity_variance>
0.5824489594

$$$$
/media/chris/experiments/cd1a-new-docking/inputs/ligands/4x6d_1_ligand.pdb


 21 20  0  0  0  0  0  0  0  0999 V2000
  -47.4888   60.2484   65.0180 C   0  0  0  0  0  0  0  0  0  0  0  0
  -47.9505   58.8619   64.6436 C   0  0  0  0  0  0  0  0  0  0  0  0
  -49.3829   58.5353   64.6690 C   0  0  0  0  0  0  0  0  0  0  0  0
  -50.3962   59.5806   65.0787 C   0  0  0  0  0  0  0  0  0  0  0  0
  -51.1121   60.1344   63.8473 C   0  0  0  0  0  0  0  0  0  0  0  0
  -50.7208   59.4242   62.5542 C   0  0  0  0  0  0  0  0  0  0  0  0
  -49.8968   60.3336   61.6387 C   0  0  0  0  0  0  0  0  0  0  0  0
  -49.0493   59.5992   60.5929 C   0  0  0  0  0  0  0  0  0  0  0  0
  -48.7591   58.1479   60.9981 C   0  0  0  0  0  0  0  0  0  0  0  0
  -48.3656   57.2701   59.8072 C   0  0  0  0  0  0  0  0  0  0  0  0
  -47.5882   58.0269   58.7234 C   0  0  0  0  0  0  0  0  0  0  0  0
  -46.1955   60.1037   65.8039 C   0  0  0  0  0  0  0  0  0  0  0  0
  -44.9796   60.4272   64.9541 C   0  0  0  0  0  0  0  0  0  0  0  0
  -43.8073   59.5143   65.3011 C   0  0  0  0  0  0  0  0  0  0  0  0
  -43.5626   59.5228   66.8036 C   0  0  0  0  0  0  0  0  0  0  0  0
  -42.3137   60.3193   67.1470 C   0  0  0  0  0  0  0  0  0  0  0  0
  -41.1038   59.8054   66.3733 C   0  0  0  0  0  0  0  0  0  0  0  0
  -40.2240   60.9719   65.9679 C   0  0  0  0  0  0  0  0  0  0  0  0
  -40.6210   62.1523   66.1429 O   0  0  0  0  0  0  0  0  0  0  0  0
  -39.0953   60.7683   65.4504 O   0  0  0  0  0  0  0  0  0  0  0  0
  -38.7925   59.8917   65.3167 H   0  0  0  0  0  0  0  0  0  0  0  0
 18 19  2  0  0  0
 18 17  1  0  0  0
 18 20  1  0  0  0
 17 16  1  0  0  0
 20 21  1  0  0  0
 16 15  1  0  0  0
 15 14  1  0  0  0
 14 13  1  0  0  0
 13 12  1  0  0  0
 12  1  1  0  0  0
  1  2  1  0  0  0
  2  3  1  0  0  0
  3  4  1  0  0  0
  4  5  1  0  0  0
  5  6  1  0  0  0
  6  7  1  0  0  0
  7  8  1  0  0  0
  8  9  1  0  0  0
  9 10  1  0  0  0
 10 11  1  0  0  0
M  END
> <minimizedAffinity>
-7.07934

> <CNNscore>
0.7967762947

> <CNNaffinity>
6.4872961044

> <CNN_VS>
5.1689238548

> <CNNaffinity_variance>
0.3078366816

$$$$
/media/chris/experiments/cd1a-new-docking/inputs/ligands/4x6d_1_ligand.pdb


 21 20  0  0  0  0  0  0  0  0999 V2000
  -45.7436   58.8563   66.0249 C   0  0  0  0  0  0  0  0  0  0  0  0
  -46.1616   60.1517   65.3746 C   0  0  0  0  0  0  0  0  0  0  0  0
  -47.5743   60.3822   65.0430 C   0  0  0  0  0  0  0  0  0  0  0  0
  -48.6588   60.0204   66.0332 C   0  0  0  0  0  0  0  0  0  0  0  0
  -49.7787   59.2513   65.3333 C   0  0  0  0  0  0  0  0  0  0  0  0
  -50.8634   60.1586   64.7589 C   0  0  0  0  0  0  0  0  0  0  0  0
  -51.1659   59.8195   63.2969 C   0  0  0  0  0  0  0  0  0  0  0  0
  -50.2560   58.7497   62.6810 C   0  0  0  0  0  0  0  0  0  0  0  0
  -51.0043   57.8596   61.6799 C   0  0  0  0  0  0  0  0  0  0  0  0
  -50.0784   57.2538   60.6219 C   0  0  0  0  0  0  0  0  0  0  0  0
  -48.9803   58.2152   60.1513 C   0  0  0  0  0  0  0  0  0  0  0  0
  -45.6585   57.8021   64.9329 C   0  0  0  0  0  0  0  0  0  0  0  0
  -44.2466   57.2671   64.7736 C   0  0  0  0  0  0  0  0  0  0  0  0
  -43.3723   57.6600   65.9607 C   0  0  0  0  0  0  0  0  0  0  0  0
  -42.0578   58.2514   65.4711 C   0  0  0  0  0  0  0  0  0  0  0  0
  -42.2975   59.5213   64.6698 C   0  0  0  0  0  0  0  0  0  0  0  0
  -42.2369   60.7554   65.5641 C   0  0  0  0  0  0  0  0  0  0  0  0
  -40.9750   61.5412   65.2650 C   0  0  0  0  0  0  0  0  0  0  0  0
  -40.2269   61.9150   66.2042 O   0  0  0  0  0  0  0  0  0  0  0  0
  -40.6703   61.8285   64.0785 O   0  0  0  0  0  0  0  0  0  0  0  0
  -41.2225   61.5536   63.3732 H   0  0  0  0  0  0  0  0  0  0  0  0
 18 19  2  0  0  0
 18 17  1  0  0  0
 18 20  1  0  0  0
 17 16  1  0  0  0
 20 21  1  0  0  0
 16 15  1  0  0  0
 15 14  1  0  0  0
 14 13  1  0  0  0
 13 12  1  0  0  0
 12  1  1  0  0  0
  1  2  1  0  0  0
  2  3  1  0  0  0
  3  4  1  0  0  0
  4  5  1  0  0  0
  5  6  1  0  0  0
  6  7  1  0  0  0
  7  8  1  0  0  0
  8  9  1  0  0  0
  9 10  1  0  0  0
 10 11  1  0  0  0
M  END
> <minimizedAffinity>
-6.79163

> <CNNscore>
0.7860978842

> <CNNaffinity>
6.6386694908

> <CNN_VS>
5.2186441422

> <CNNaffinity_variance>
0.5564779043

$$$$
/media/chris/experiments/cd1a-new-docking/inputs/ligands/4x6d_1_ligand.pdb


 21 20  0  0  0  0  0  0  0  0999 V2000
  -43.3526   58.4941   65.0980 C   0  0  0  0  0  0  0  0  0  0  0  0
  -44.1317   59.6070   65.7540 C   0  0  0  0  0  0  0  0  0  0  0  0
  -44.9306   59.3319   66.9561 C   0  0  0  0  0  0  0  0  0  0  0  0
  -46.3898   58.9542   66.8318 C   0  0  0  0  0  0  0  0  0  0  0  0
  -46.5332   57.4402   66.6803 C   0  0  0  0  0  0  0  0  0  0  0  0
  -47.5424   57.0360   65.6090 C   0  0  0  0  0  0  0  0  0  0  0  0
  -48.5670   58.1445   65.3530 C   0  0  0  0  0  0  0  0  0  0  0  0
  -48.8329   58.4482   63.8736 C   0  0  0  0  0  0  0  0  0  0  0  0
  -50.3319   58.5648   63.5668 C   0  0  0  0  0  0  0  0  0  0  0  0
  -50.6766   59.8324   62.7808 C   0  0  0  0  0  0  0  0  0  0  0  0
  -49.5246   60.3372   61.9035 C   0  0  0  0  0  0  0  0  0  0  0  0
  -42.0380   58.3516   65.8480 C   0  0  0  0  0  0  0  0  0  0  0  0
  -41.3598   59.6935   66.0584 C   0  0  0  0  0  0  0  0  0  0  0  0
  -40.1717   59.8632   65.1163 C   0  0  0  0  0  0  0  0  0  0  0  0
  -39.6029   58.5024   64.7390 C   0  0  0  0  0  0  0  0  0  0  0  0
  -38.0945   58.4715   64.9288 C   0  0  0  0  0  0  0  0  0  0  0  0
  -37.5732   59.8216   65.4105 C   0  0  0  0  0  0  0  0  0  0  0  0
  -36.5545   60.3572   64.4234 C   0  0  0  0  0  0  0  0  0  0  0  0
  -35.3608   59.9644   64.4730 O   0  0  0  0  0  0  0  0  0  0  0  0
  -36.8936   61.1999   63.5528 O   0  0  0  0  0  0  0  0  0  0  0  0
  -37.7810   61.4975   63.5094 H   0  0  0  0  0  0  0  0  0  0  0  0
 18 19  2  0  0  0
 18 17  1  0  0  0
 18 20  1  0  0  0
 17 16  1  0  0  0
 20 21  1  0  0  0
 16 15  1  0  0  0
 15 14  1  0  0  0
 14 13  1  0  0  0
 13 12  1  0  0  0
 12  1  1  0  0  0
  1  2  1  0  0  0
  2  3  1  0  0  0
  3  4  1  0  0  0
  4  5  1  0  0  0
  5  6  1  0  0  0
  6  7  1  0  0  0
  7  8  1  0  0  0
  8  9  1  0  0  0
  9 10  1  0  0  0
 10 11  1  0  0  0
M  END
> <minimizedAffinity>
-6.22624

> <CNNscore>
0.7634321451

> <CNNaffinity>
6.4246153831

> <CNN_VS>
4.9047579765

> <CNNaffinity_variance>
0.3265040219

$$$$
/media/chris/experiments/cd1a-new-docking/inputs/ligands/4x6d_1_ligand.pdb


 21 20  0  0  0  0  0  0  0  0999 V2000
  -49.4366   58.2354   63.8385 C   0  0  0  0  0  0  0  0  0  0  0  0
  -49.8254   58.8887   65.1415 C   0  0  0  0  0  0  0  0  0  0  0  0
  -49.0039   59.9770   65.6889 C   0  0  0  0  0  0  0  0  0  0  0  0
  -48.0731   60.7572   64.7875 C   0  0  0  0  0  0  0  0  0  0  0  0
  -46.6177   60.4326   65.1222 C   0  0  0  0  0  0  0  0  0  0  0  0
  -46.4623   59.6229   66.4067 C   0  0  0  0  0  0  0  0  0  0  0  0
  -45.9715   58.2011   66.1207 C   0  0  0  0  0  0  0  0  0  0  0  0
  -45.2858   58.0163   64.7615 C   0  0  0  0  0  0  0  0  0  0  0  0
  -43.7880   58.3447   64.8191 C   0  0  0  0  0  0  0  0  0  0  0  0
  -43.0995   57.7463   66.0485 C   0  0  0  0  0  0  0  0  0  0  0  0
  -42.1327   58.7168   66.7377 C   0  0  0  0  0  0  0  0  0  0  0  0
  -50.5213   58.5574   62.8232 C   0  0  0  0  0  0  0  0  0  0  0  0
  -49.9667   58.6424   61.4125 C   0  0  0  0  0  0  0  0  0  0  0  0
  -50.3723   57.4245   60.5876 C   0  0  0  0  0  0  0  0  0  0  0  0
  -49.8233   57.5428   59.1727 C   0  0  0  0  0  0  0  0  0  0  0  0
  -48.3029   57.5211   59.1754 C   0  0  0  0  0  0  0  0  0  0  0  0
  -47.7720   56.1459   58.7835 C   0  0  0  0  0  0  0  0  0  0  0  0
  -47.6939   56.0403   57.2729 C   0  0  0  0  0  0  0  0  0  0  0  0
  -47.9099   54.9389   56.7055 O   0  0  0  0  0  0  0  0  0  0  0  0
  -47.4086   57.0497   56.5781 O   0  0  0  0  0  0  0  0  0  0  0  0
  -47.2463   57.8737   56.9934 H   0  0  0  0  0  0  0  0  0  0  0  0
 18 19  2  0  0  0
 18 17  1  0  0  0
 18 20  1  0  0  0
 17 16  1  0  0  0
 20 21  1  0  0  0
 16 15  1  0  0  0
 15 14  1  0  0  0
 14 13  1  0  0  0
 13 12  1  0  0  0
 12  1  1  0  0  0
  1  2  1  0  0  0
  2  3  1  0  0  0
  3  4  1  0  0  0
  4  5  1  0  0  0
  5  6  1  0  0  0
  6  7  1  0  0  0
  7  8  1  0  0  0
  8  9  1  0  0  0
  9 10  1  0  0  0
 10 11  1  0  0  0
M  END
> <minimizedAffinity>
-6.85486

> <CNNscore>
0.7238956094

> <CNNaffinity>
6.7487001419

> <CNN_VS>
4.8853545189

> <CNNaffinity_variance>
0.6169772744

$$$$
/media/chris/experiments/cd1a-new-docking/inputs/ligands/4x6d_1_ligand.pdb


 21 20  0  0  0  0  0  0  0  0999 V2000
  -49.5149   58.4093   65.3416 C   0  0  0  0  0  0  0  0  0  0  0  0
  -48.0732   58.8534   65.3308 C   0  0  0  0  0  0  0  0  0  0  0  0
  -47.4994   59.5072   66.5151 C   0  0  0  0  0  0  0  0  0  0  0  0
  -46.0793   59.2061   66.9393 C   0  0  0  0  0  0  0  0  0  0  0  0
  -45.1836   59.0446   65.7115 C   0  0  0  0  0  0  0  0  0  0  0  0
  -44.0018   60.0104   65.6981 C   0  0  0  0  0  0  0  0  0  0  0  0
  -43.1071   59.8234   66.9263 C   0  0  0  0  0  0  0  0  0  0  0  0
  -41.6208   59.6093   66.6154 C   0  0  0  0  0  0  0  0  0  0  0  0
  -41.4084   58.8391   65.3053 C   0  0  0  0  0  0  0  0  0  0  0  0
  -39.9283   58.6765   64.9497 C   0  0  0  0  0  0  0  0  0  0  0  0
  -39.0528   59.8353   65.4420 C   0  0  0  0  0  0  0  0  0  0  0  0
  -49.9919   58.3673   63.8987 C   0  0  0  0  0  0  0  0  0  0  0  0
  -49.1555   59.2621   63.0015 C   0  0  0  0  0  0  0  0  0  0  0  0
  -49.5740   59.1221   61.5410 C   0  0  0  0  0  0  0  0  0  0  0  0
  -50.4626   57.8986   61.3648 C   0  0  0  0  0  0  0  0  0  0  0  0
  -49.8502   56.9190   60.3762 C   0  0  0  0  0  0  0  0  0  0  0  0
  -48.5764   57.4861   59.7578 C   0  0  0  0  0  0  0  0  0  0  0  0
  -48.1976   56.6743   58.5343 C   0  0  0  0  0  0  0  0  0  0  0  0
  -48.2610   57.1914   57.3897 O   0  0  0  0  0  0  0  0  0  0  0  0
  -47.8228   55.4793   58.6543 O   0  0  0  0  0  0  0  0  0  0  0  0
  -47.7729   55.0869   59.5037 H   0  0  0  0  0  0  0  0  0  0  0  0
 18 19  2  0  0  0
 18 17  1  0  0  0
 18 20  1  0  0  0
 17 16  1  0  0  0
 20 21  1  0  0  0
 16 15  1  0  0  0
 15 14  1  0  0  0
 14 13  1  0  0  0
 13 12  1  0  0  0
 12  1  1  0  0  0
  1  2  1  0  0  0
  2  3  1  0  0  0
  3  4  1  0  0  0
  4  5  1  0  0  0
  5  6  1  0  0  0
  6  7  1  0  0  0
  7  8  1  0  0  0
  8  9  1  0  0  0
  9 10  1  0  0  0
 10 11  1  0  0  0
M  END
> <minimizedAffinity>
-6.49807

> <CNNscore>
0.7181527615

> <CNNaffinity>
6.5270218849

> <CNN_VS>
4.6873989105

> <CNNaffinity_variance>
0.5960423350

$$$$
/media/chris/experiments/cd1a-new-docking/inputs/ligands/4x6d_1_ligand.pdb


 21 20  0  0  0  0  0  0  0  0999 V2000
  -44.3258   60.0984   65.3993 C   0  0  0  0  0  0  0  0  0  0  0  0
  -45.7443   59.5871   65.3522 C   0  0  0  0  0  0  0  0  0  0  0  0
  -46.8662   60.5266   65.4841 C   0  0  0  0  0  0  0  0  0  0  0  0
  -48.0687   60.1648   66.3271 C   0  0  0  0  0  0  0  0  0  0  0  0
  -49.0161   59.2627   65.5371 C   0  0  0  0  0  0  0  0  0  0  0  0
  -50.4634   59.7471   65.5564 C   0  0  0  0  0  0  0  0  0  0  0  0
  -50.9155   60.2272   64.1746 C   0  0  0  0  0  0  0  0  0  0  0  0
  -49.7815   60.4555   63.1679 C   0  0  0  0  0  0  0  0  0  0  0  0
  -49.9369   59.5857   61.9134 C   0  0  0  0  0  0  0  0  0  0  0  0
  -50.8426   58.3732   62.1445 C   0  0  0  0  0  0  0  0  0  0  0  0
  -50.8914   57.4131   60.9498 C   0  0  0  0  0  0  0  0  0  0  0  0
  -43.6569   59.4819   66.6173 C   0  0  0  0  0  0  0  0  0  0  0  0
  -42.1832   59.8389   66.6931 C   0  0  0  0  0  0  0  0  0  0  0  0
  -41.5745   59.9619   65.2994 C   0  0  0  0  0  0  0  0  0  0  0  0
  -40.4219   58.9801   65.1418 C   0  0  0  0  0  0  0  0  0  0  0  0
  -39.4977   59.4030   64.0107 C   0  0  0  0  0  0  0  0  0  0  0  0
  -38.1719   59.9286   64.5514 C   0  0  0  0  0  0  0  0  0  0  0  0
  -37.3401   60.4843   63.4118 C   0  0  0  0  0  0  0  0  0  0  0  0
  -36.6841   61.5457   63.5687 O   0  0  0  0  0  0  0  0  0  0  0  0
  -37.3038   59.8919   62.3024 O   0  0  0  0  0  0  0  0  0  0  0  0
  -37.7899   59.1006   62.1777 H   0  0  0  0  0  0  0  0  0  0  0  0
 18 19  2  0  0  0
 18 17  1  0  0  0
 18 20  1  0  0  0
 17 16  1  0  0  0
 20 21  1  0  0  0
 16 15  1  0  0  0
 15 14  1  0  0  0
 14 13  1  0  0  0
 13 12  1  0  0  0
 12  1  1  0  0  0
  1  2  1  0  0  0
  2  3  1  0  0  0
  3  4  1  0  0  0
  4  5  1  0  0  0
  5  6  1  0  0  0
  6  7  1  0  0  0
  7  8  1  0  0  0
  8  9  1  0  0  0
  9 10  1  0  0  0
 10 11  1  0  0  0
M  END
> <minimizedAffinity>
-6.62808

> <CNNscore>
0.6380015612

> <CNNaffinity>
6.1387119293

> <CNN_VS>
3.9165077209

> <CNNaffinity_variance>
0.2544390559

$$$$
/media/chris/experiments/cd1a-new-docking/inputs/ligands/4x6d_1_ligand.pdb


 21 20  0  0  0  0  0  0  0  0999 V2000
  -49.0179   59.5389   64.6494 C   0  0  0  0  0  0  0  0  0  0  0  0
  -50.3708   60.1621   64.4101 C   0  0  0  0  0  0  0  0  0  0  0  0
  -51.1770   59.7416   63.2559 C   0  0  0  0  0  0  0  0  0  0  0  0
  -50.5034   59.2926   61.9784 C   0  0  0  0  0  0  0  0  0  0  0  0
  -50.6990   57.7903   61.7772 C   0  0  0  0  0  0  0  0  0  0  0  0
  -49.8208   57.2124   60.6707 C   0  0  0  0  0  0  0  0  0  0  0  0
  -48.4565   57.9050   60.6143 C   0  0  0  0  0  0  0  0  0  0  0  0
  -48.0214   58.3605   59.2161 C   0  0  0  0  0  0  0  0  0  0  0  0
  -47.0047   57.4002   58.5846 C   0  0  0  0  0  0  0  0  0  0  0  0
  -47.0864   57.3758   57.0561 C   0  0  0  0  0  0  0  0  0  0  0  0
  -48.2967   56.5995   56.5233 C   0  0  0  0  0  0  0  0  0  0  0  0
  -49.2460   58.1883   65.3089 C   0  0  0  0  0  0  0  0  0  0  0  0
  -47.9498   57.4159   65.4763 C   0  0  0  0  0  0  0  0  0  0  0  0
  -46.7742   58.1760   64.8696 C   0  0  0  0  0  0  0  0  0  0  0  0
  -45.4592   57.5957   65.3712 C   0  0  0  0  0  0  0  0  0  0  0  0
  -44.3487   57.8052   64.3538 C   0  0  0  0  0  0  0  0  0  0  0  0
  -43.5401   59.0585   64.6728 C   0  0  0  0  0  0  0  0  0  0  0  0
  -42.4481   58.7216   65.6695 C   0  0  0  0  0  0  0  0  0  0  0  0
  -42.6109   58.9698   66.8916 O   0  0  0  0  0  0  0  0  0  0  0  0
  -41.3722   58.1971   65.2818 O   0  0  0  0  0  0  0  0  0  0  0  0
  -41.2433   58.0092   64.3729 H   0  0  0  0  0  0  0  0  0  0  0  0
 18 19  2  0  0  0
 18 17  1  0  0  0
 18 20  1  0  0  0
 17 16  1  0  0  0
 20 21  1  0  0  0
 16 15  1  0  0  0
 15 14  1  0  0  0
 14 13  1  0  0  0
 13 12  1  0  0  0
 12  1  1  0  0  0
  1  2  1  0  0  0
  2  3  1  0  0  0
  3  4  1  0  0  0
  4  5  1  0  0  0
  5  6  1  0  0  0
  6  7  1  0  0  0
  7  8  1  0  0  0
  8  9  1  0  0  0
  9 10  1  0  0  0
 10 11  1  0  0  0
M  END
> <minimizedAffinity>
-6.96198

> <CNNscore>
0.6372378469

> <CNNaffinity>
6.5712141991

> <CNN_VS>
4.1874265671

> <CNNaffinity_variance>
0.3662789166

$$$$
