/media/chris/experiments/cd1a-new-docking/inputs/ligands/4x6d_1_ligand.pdb


 21 20  0  0  0  0  0  0  0  0999 V2000
  -48.4064   58.1140   65.1907 C   0  0  0  0  0  0  0  0  0  0  0  0
  -49.7904   58.6738   64.9733 C   0  0  0  0  0  0  0  0  0  0  0  0
  -50.0612   59.5246   63.8064 C   0  0  0  0  0  0  0  0  0  0  0  0
  -51.0683   59.0916   62.7644 C   0  0  0  0  0  0  0  0  0  0  0  0
  -50.4340   58.0896   61.8004 C   0  0  0  0  0  0  0  0  0  0  0  0
  -49.5615   58.7490   60.7357 C   0  0  0  0  0  0  0  0  0  0  0  0
  -48.2866   57.9429   60.4732 C   0  0  0  0  0  0  0  0  0  0  0  0
  -48.2479   57.2186   59.1221 C   0  0  0  0  0  0  0  0  0  0  0  0
  -47.3823   57.9581   58.0934 C   0  0  0  0  0  0  0  0  0  0  0  0
  -47.2320   57.1826   56.7820 C   0  0  0  0  0  0  0  0  0  0  0  0
  -47.7713   55.7490   56.8570 C   0  0  0  0  0  0  0  0  0  0  0  0
  -47.4324   58.9869   64.4160 C   0  0  0  0  0  0  0  0  0  0  0  0
  -46.7504   60.0047   65.3127 C   0  0  0  0  0  0  0  0  0  0  0  0
  -45.6091   59.3673   66.0994 C   0  0  0  0  0  0  0  0  0  0  0  0
  -44.2823   60.0011   65.7054 C   0  0  0  0  0  0  0  0  0  0  0  0
  -43.1500   59.4790   66.5758 C   0  0  0  0  0  0  0  0  0  0  0  0
  -42.3057   60.6243   67.1250 C   0  0  0  0  0  0  0  0  0  0  0  0
  -41.1244   60.8733   66.2075 C   0  0  0  0  0  0  0  0  0  0  0  0
  -40.6595   59.9364   65.5091 O   0  0  0  0  0  0  0  0  0  0  0  0
  -40.5989   62.0146   66.1418 O   0  0  0  0  0  0  0  0  0  0  0  0
  -40.9395   62.7177   66.6592 H   0  0  0  0  0  0  0  0  0  0  0  0
 18 19  2  0  0  0
 18 17  1  0  0  0
 18 20  1  0  0  0
 17 16  1  0  0  0
 20 21  1  0  0  0
 16 15  1  0  0  0
 15 14  1  0  0  0
 14 13  1  0  0  0
 13 12  1  0  0  0
 12  1  1  0  0  0
  1  2  1  0  0  0
  2  3  1  0  0  0
  3  4  1  0  0  0
  4  5  1  0  0  0
  5  6  1  0  0  0
  6  7  1  0  0  0
  7  8  1  0  0  0
  8  9  1  0  0  0
  9 10  1  0  0  0
 10 11  1  0  0  0
M  END
> <minimizedAffinity>
-7.11513

> <CNNscore>
0.9298169017

> <CNNaffinity>
6.9744248390

> <CNN_VS>
6.4849381447

> <CNNaffinity_variance>
0.6869174242

$$$$
/media/chris/experiments/cd1a-new-docking/inputs/ligands/4x6d_1_ligand.pdb


 21 20  0  0  0  0  0  0  0  0999 V2000
  -47.4840   59.4677   65.8156 C   0  0  0  0  0  0  0  0  0  0  0  0
  -48.3475   58.3087   65.3834 C   0  0  0  0  0  0  0  0  0  0  0  0
  -49.7973   58.4925   65.2309 C   0  0  0  0  0  0  0  0  0  0  0  0
  -50.3458   59.7736   64.6430 C   0  0  0  0  0  0  0  0  0  0  0  0
  -50.2261   59.7500   63.1196 C   0  0  0  0  0  0  0  0  0  0  0  0
  -50.9341   58.5592   62.4792 C   0  0  0  0  0  0  0  0  0  0  0  0
  -49.9904   57.7622   61.5745 C   0  0  0  0  0  0  0  0  0  0  0  0
  -50.2836   57.8788   60.0739 C   0  0  0  0  0  0  0  0  0  0  0  0
  -49.1718   57.2593   59.2168 C   0  0  0  0  0  0  0  0  0  0  0  0
  -47.8939   58.1023   59.2085 C   0  0  0  0  0  0  0  0  0  0  0  0
  -47.1493   58.0662   57.8684 C   0  0  0  0  0  0  0  0  0  0  0  0
  -46.6306   58.9935   66.9809 C   0  0  0  0  0  0  0  0  0  0  0  0
  -45.1516   59.2252   66.7283 C   0  0  0  0  0  0  0  0  0  0  0  0
  -44.9269   59.9563   65.4082 C   0  0  0  0  0  0  0  0  0  0  0  0
  -43.8175   59.2792   64.6156 C   0  0  0  0  0  0  0  0  0  0  0  0
  -42.6780   60.2471   64.3385 C   0  0  0  0  0  0  0  0  0  0  0  0
  -41.4938   59.9812   65.2624 C   0  0  0  0  0  0  0  0  0  0  0  0
  -41.4023   61.0793   66.3040 C   0  0  0  0  0  0  0  0  0  0  0  0
  -40.5469   61.9933   66.1837 O   0  0  0  0  0  0  0  0  0  0  0  0
  -42.1761   61.0818   67.2961 O   0  0  0  0  0  0  0  0  0  0  0  0
  -42.8160   60.4041   67.3928 H   0  0  0  0  0  0  0  0  0  0  0  0
 18 19  2  0  0  0
 18 17  1  0  0  0
 18 20  1  0  0  0
 17 16  1  0  0  0
 20 21  1  0  0  0
 16 15  1  0  0  0
 15 14  1  0  0  0
 14 13  1  0  0  0
 13 12  1  0  0  0
 12  1  1  0  0  0
  1  2  1  0  0  0
  2  3  1  0  0  0
  3  4  1  0  0  0
  4  5  1  0  0  0
  5  6  1  0  0  0
  6  7  1  0  0  0
  7  8  1  0  0  0
  8  9  1  0  0  0
  9 10  1  0  0  0
 10 11  1  0  0  0
M  END
> <minimizedAffinity>
-7.03585

> <CNNscore>
0.8692533970

> <CNNaffinity>
6.8246512413

> <CNN_VS>
5.9323511124

> <CNNaffinity_variance>
0.5916852355

$$$$
/media/chris/experiments/cd1a-new-docking/inputs/ligands/4x6d_1_ligand.pdb


 21 20  0  0  0  0  0  0  0  0999 V2000
  -47.1663   56.9492   65.8350 C   0  0  0  0  0  0  0  0  0  0  0  0
  -47.6347   58.0145   64.8750 C   0  0  0  0  0  0  0  0  0  0  0  0
  -47.7312   59.4112   65.3211 C   0  0  0  0  0  0  0  0  0  0  0  0
  -49.0408   59.9547   65.8474 C   0  0  0  0  0  0  0  0  0  0  0  0
  -50.2157   59.2286   65.1933 C   0  0  0  0  0  0  0  0  0  0  0  0
  -51.0565   60.1323   64.2954 C   0  0  0  0  0  0  0  0  0  0  0  0
  -50.9962   59.6863   62.8320 C   0  0  0  0  0  0  0  0  0  0  0  0
  -50.4914   58.2549   62.6139 C   0  0  0  0  0  0  0  0  0  0  0  0
  -51.0630   57.6278   61.3354 C   0  0  0  0  0  0  0  0  0  0  0  0
  -49.9755   57.0632   60.4177 C   0  0  0  0  0  0  0  0  0  0  0  0
  -48.9236   58.1017   60.0094 C   0  0  0  0  0  0  0  0  0  0  0  0
  -45.7520   57.3075   66.2622 C   0  0  0  0  0  0  0  0  0  0  0  0
  -44.7505   57.0832   65.1433 C   0  0  0  0  0  0  0  0  0  0  0  0
  -44.0358   58.3803   64.7766 C   0  0  0  0  0  0  0  0  0  0  0  0
  -44.0471   59.3381   65.9598 C   0  0  0  0  0  0  0  0  0  0  0  0
  -42.7634   59.2216   66.7664 C   0  0  0  0  0  0  0  0  0  0  0  0
  -42.1933   60.5979   67.0942 C   0  0  0  0  0  0  0  0  0  0  0  0
  -40.9995   60.8813   66.2033 C   0  0  0  0  0  0  0  0  0  0  0  0
  -40.4698   59.9512   65.5431 O   0  0  0  0  0  0  0  0  0  0  0  0
  -40.5283   62.0451   66.1216 O   0  0  0  0  0  0  0  0  0  0  0  0
  -40.9174   62.7435   66.6104 H   0  0  0  0  0  0  0  0  0  0  0  0
 18 19  2  0  0  0
 18 17  1  0  0  0
 18 20  1  0  0  0
 17 16  1  0  0  0
 20 21  1  0  0  0
 16 15  1  0  0  0
 15 14  1  0  0  0
 14 13  1  0  0  0
 13 12  1  0  0  0
 12  1  1  0  0  0
  1  2  1  0  0  0
  2  3  1  0  0  0
  3  4  1  0  0  0
  4  5  1  0  0  0
  5  6  1  0  0  0
  6  7  1  0  0  0
  7  8  1  0  0  0
  8  9  1  0  0  0
  9 10  1  0  0  0
 10 11  1  0  0  0
M  END
> <minimizedAffinity>
-6.95140

> <CNNscore>
0.8180509210

> <CNNaffinity>
6.6243376732

> <CNN_VS>
5.4190454483

> <CNNaffinity_variance>
0.4036457539

$$$$
/media/chris/experiments/cd1a-new-docking/inputs/ligands/4x6d_1_ligand.pdb


 21 20  0  0  0  0  0  0  0  0999 V2000
  -49.6852   60.5821   62.2563 C   0  0  0  0  0  0  0  0  0  0  0  0
  -50.7770   59.9246   63.0634 C   0  0  0  0  0  0  0  0  0  0  0  0
  -50.9546   60.2767   64.4788 C   0  0  0  0  0  0  0  0  0  0  0  0
  -50.1028   59.6183   65.5411 C   0  0  0  0  0  0  0  0  0  0  0  0
  -49.4779   58.3341   64.9969 C   0  0  0  0  0  0  0  0  0  0  0  0
  -47.9892   58.4729   64.6900 C   0  0  0  0  0  0  0  0  0  0  0  0
  -47.1438   58.4228   65.9655 C   0  0  0  0  0  0  0  0  0  0  0  0
  -46.1065   57.2943   66.0081 C   0  0  0  0  0  0  0  0  0  0  0  0
  -45.0952   57.3937   64.8584 C   0  0  0  0  0  0  0  0  0  0  0  0
  -43.6690   57.0490   65.2953 C   0  0  0  0  0  0  0  0  0  0  0  0
  -43.1044   58.0125   66.3462 C   0  0  0  0  0  0  0  0  0  0  0  0
  -49.4646   59.7383   61.0112 C   0  0  0  0  0  0  0  0  0  0  0  0
  -49.9354   58.3084   61.2078 C   0  0  0  0  0  0  0  0  0  0  0  0
  -49.0334   57.3256   60.4674 C   0  0  0  0  0  0  0  0  0  0  0  0
  -48.4691   57.9751   59.2116 C   0  0  0  0  0  0  0  0  0  0  0  0
  -47.2376   57.2306   58.7202 C   0  0  0  0  0  0  0  0  0  0  0  0
  -47.0695   57.3812   57.2117 C   0  0  0  0  0  0  0  0  0  0  0  0
  -47.7797   56.2444   56.5029 C   0  0  0  0  0  0  0  0  0  0  0  0
  -48.9819   56.3702   56.1559 O   0  0  0  0  0  0  0  0  0  0  0  0
  -47.1747   55.1680   56.2615 O   0  0  0  0  0  0  0  0  0  0  0  0
  -46.2788   55.0666   56.5170 H   0  0  0  0  0  0  0  0  0  0  0  0
 18 19  2  0  0  0
 18 17  1  0  0  0
 18 20  1  0  0  0
 17 16  1  0  0  0
 20 21  1  0  0  0
 16 15  1  0  0  0
 15 14  1  0  0  0
 14 13  1  0  0  0
 13 12  1  0  0  0
 12  1  1  0  0  0
  1  2  1  0  0  0
  2  3  1  0  0  0
  3  4  1  0  0  0
  4  5  1  0  0  0
  5  6  1  0  0  0
  6  7  1  0  0  0
  7  8  1  0  0  0
  8  9  1  0  0  0
  9 10  1  0  0  0
 10 11  1  0  0  0
M  END
> <minimizedAffinity>
-7.33491

> <CNNscore>
0.7814026475

> <CNNaffinity>
6.8858604431

> <CNN_VS>
5.3806295395

> <CNNaffinity_variance>
0.4638405442

$$$$
/media/chris/experiments/cd1a-new-docking/inputs/ligands/4x6d_1_ligand.pdb


 21 20  0  0  0  0  0  0  0  0999 V2000
  -45.6325   59.8966   65.2797 C   0  0  0  0  0  0  0  0  0  0  0  0
  -46.3002   58.5688   65.0211 C   0  0  0  0  0  0  0  0  0  0  0  0
  -47.7613   58.4517   65.1228 C   0  0  0  0  0  0  0  0  0  0  0  0
  -48.5947   58.2068   63.8846 C   0  0  0  0  0  0  0  0  0  0  0  0
  -50.0514   58.5895   64.1435 C   0  0  0  0  0  0  0  0  0  0  0  0
  -50.5545   59.6983   63.2231 C   0  0  0  0  0  0  0  0  0  0  0  0
  -49.4067   60.3530   62.4497 C   0  0  0  0  0  0  0  0  0  0  0  0
  -49.5853   60.3762   60.9269 C   0  0  0  0  0  0  0  0  0  0  0  0
  -49.6579   58.9642   60.3308 C   0  0  0  0  0  0  0  0  0  0  0  0
  -48.2991   58.2591   60.3162 C   0  0  0  0  0  0  0  0  0  0  0  0
  -47.7445   58.0349   58.9043 C   0  0  0  0  0  0  0  0  0  0  0  0
  -44.1313   59.6578   65.3019 C   0  0  0  0  0  0  0  0  0  0  0  0
  -43.5552   59.8169   66.6976 C   0  0  0  0  0  0  0  0  0  0  0  0
  -42.0442   60.0228   66.6487 C   0  0  0  0  0  0  0  0  0  0  0  0
  -41.3894   58.9124   65.8389 C   0  0  0  0  0  0  0  0  0  0  0  0
  -40.3430   59.4755   64.8900 C   0  0  0  0  0  0  0  0  0  0  0  0
  -38.9679   58.8782   65.1708 C   0  0  0  0  0  0  0  0  0  0  0  0
  -37.9966   59.9832   65.5376 C   0  0  0  0  0  0  0  0  0  0  0  0
  -38.3764   60.9457   66.2524 O   0  0  0  0  0  0  0  0  0  0  0  0
  -36.8079   59.9481   65.1267 O   0  0  0  0  0  0  0  0  0  0  0  0
  -36.5173   59.2344   64.5936 H   0  0  0  0  0  0  0  0  0  0  0  0
 18 19  2  0  0  0
 18 17  1  0  0  0
 18 20  1  0  0  0
 17 16  1  0  0  0
 20 21  1  0  0  0
 16 15  1  0  0  0
 15 14  1  0  0  0
 14 13  1  0  0  0
 13 12  1  0  0  0
 12  1  1  0  0  0
  1  2  1  0  0  0
  2  3  1  0  0  0
  3  4  1  0  0  0
  4  5  1  0  0  0
  5  6  1  0  0  0
  6  7  1  0  0  0
  7  8  1  0  0  0
  8  9  1  0  0  0
  9 10  1  0  0  0
 10 11  1  0  0  0
M  END
> <minimizedAffinity>
-6.66921

> <CNNscore>
0.7283473611

> <CNNaffinity>
6.4294176102

> <CNN_VS>
4.6828494072

> <CNNaffinity_variance>
0.2768767476

$$$$
/media/chris/experiments/cd1a-new-docking/inputs/ligands/4x6d_1_ligand.pdb


 21 20  0  0  0  0  0  0  0  0999 V2000
  -48.9029   59.4653   62.9741 C   0  0  0  0  0  0  0  0  0  0  0  0
  -49.1871   60.6301   63.8898 C   0  0  0  0  0  0  0  0  0  0  0  0
  -48.1360   61.1302   64.7865 C   0  0  0  0  0  0  0  0  0  0  0  0
  -47.9391   60.5091   66.1514 C   0  0  0  0  0  0  0  0  0  0  0  0
  -46.6253   59.7296   66.1932 C   0  0  0  0  0  0  0  0  0  0  0  0
  -45.7581   59.9460   64.9559 C   0  0  0  0  0  0  0  0  0  0  0  0
  -44.3129   60.2832   65.3325 C   0  0  0  0  0  0  0  0  0  0  0  0
  -43.2478   59.6789   64.4096 C   0  0  0  0  0  0  0  0  0  0  0  0
  -42.1481   60.6887   64.0554 C   0  0  0  0  0  0  0  0  0  0  0  0
  -42.6525   61.8189   63.1545 C   0  0  0  0  0  0  0  0  0  0  0  0
  -42.0911   61.7578   61.7287 C   0  0  0  0  0  0  0  0  0  0  0  0
  -50.2180   58.7425   62.7311 C   0  0  0  0  0  0  0  0  0  0  0  0
  -50.3063   58.1910   61.3193 C   0  0  0  0  0  0  0  0  0  0  0  0
  -49.0039   58.4180   60.5576 C   0  0  0  0  0  0  0  0  0  0  0  0
  -48.9614   57.5372   59.3167 C   0  0  0  0  0  0  0  0  0  0  0  0
  -47.8004   57.9240   58.4143 C   0  0  0  0  0  0  0  0  0  0  0  0
  -47.0073   56.6952   57.9815 C   0  0  0  0  0  0  0  0  0  0  0  0
  -47.5106   56.2106   56.6358 C   0  0  0  0  0  0  0  0  0  0  0  0
  -48.1010   57.0048   55.8597 O   0  0  0  0  0  0  0  0  0  0  0  0
  -47.3461   55.0126   56.2884 O   0  0  0  0  0  0  0  0  0  0  0  0
  -46.9072   54.4147   56.8611 H   0  0  0  0  0  0  0  0  0  0  0  0
 18 19  2  0  0  0
 18 17  1  0  0  0
 18 20  1  0  0  0
 17 16  1  0  0  0
 20 21  1  0  0  0
 16 15  1  0  0  0
 15 14  1  0  0  0
 14 13  1  0  0  0
 13 12  1  0  0  0
 12  1  1  0  0  0
  1  2  1  0  0  0
  2  3  1  0  0  0
  3  4  1  0  0  0
  4  5  1  0  0  0
  5  6  1  0  0  0
  6  7  1  0  0  0
  7  8  1  0  0  0
  8  9  1  0  0  0
  9 10  1  0  0  0
 10 11  1  0  0  0
M  END
> <minimizedAffinity>
-7.24695

> <CNNscore>
0.6667286158

> <CNNaffinity>
6.6872663498

> <CNN_VS>
4.4585919380

> <CNNaffinity_variance>
0.5032131076

$$$$
/media/chris/experiments/cd1a-new-docking/inputs/ligands/4x6d_1_ligand.pdb


 21 20  0  0  0  0  0  0  0  0999 V2000
  -49.2284   59.6161   62.3272 C   0  0  0  0  0  0  0  0  0  0  0  0
  -49.3818   60.4530   63.5730 C   0  0  0  0  0  0  0  0  0  0  0  0
  -48.2358   60.6444   64.4724 C   0  0  0  0  0  0  0  0  0  0  0  0
  -48.2042   59.9635   65.8226 C   0  0  0  0  0  0  0  0  0  0  0  0
  -47.8529   58.4850   65.6610 C   0  0  0  0  0  0  0  0  0  0  0  0
  -46.7055   58.2428   64.6841 C   0  0  0  0  0  0  0  0  0  0  0  0
  -45.3965   57.9366   65.4170 C   0  0  0  0  0  0  0  0  0  0  0  0
  -44.1747   57.7574   64.5079 C   0  0  0  0  0  0  0  0  0  0  0  0
  -43.0128   58.6744   64.9121 C   0  0  0  0  0  0  0  0  0  0  0  0
  -43.4174   60.1497   64.9692 C   0  0  0  0  0  0  0  0  0  0  0  0
  -42.9225   60.9639   63.7676 C   0  0  0  0  0  0  0  0  0  0  0  0
  -49.9423   58.2963   62.5712 C   0  0  0  0  0  0  0  0  0  0  0  0
  -50.7368   57.8514   61.3564 C   0  0  0  0  0  0  0  0  0  0  0  0
  -49.9428   56.8579   60.5136 C   0  0  0  0  0  0  0  0  0  0  0  0
  -49.4635   57.5233   59.2310 C   0  0  0  0  0  0  0  0  0  0  0  0
  -47.9450   57.5198   59.1509 C   0  0  0  0  0  0  0  0  0  0  0  0
  -47.4705   57.6291   57.7054 C   0  0  0  0  0  0  0  0  0  0  0  0
  -47.8575   56.3757   56.9449 C   0  0  0  0  0  0  0  0  0  0  0  0
  -47.6165   55.2419   57.4327 O   0  0  0  0  0  0  0  0  0  0  0  0
  -48.4169   56.4603   55.8211 O   0  0  0  0  0  0  0  0  0  0  0  0
  -48.5998   57.3014   55.4508 H   0  0  0  0  0  0  0  0  0  0  0  0
 18 19  2  0  0  0
 18 17  1  0  0  0
 18 20  1  0  0  0
 17 16  1  0  0  0
 20 21  1  0  0  0
 16 15  1  0  0  0
 15 14  1  0  0  0
 14 13  1  0  0  0
 13 12  1  0  0  0
 12  1  1  0  0  0
  1  2  1  0  0  0
  2  3  1  0  0  0
  3  4  1  0  0  0
  4  5  1  0  0  0
  5  6  1  0  0  0
  6  7  1  0  0  0
  7  8  1  0  0  0
  8  9  1  0  0  0
  9 10  1  0  0  0
 10 11  1  0  0  0
M  END
> <minimizedAffinity>
-6.95269

> <CNNscore>
0.6657297611

> <CNNaffinity>
6.6747078896

> <CNN_VS>
4.4435515404

> <CNNaffinity_variance>
0.3358480334

$$$$
/media/chris/experiments/cd1a-new-docking/inputs/ligands/4x6d_1_ligand.pdb


 21 20  0  0  0  0  0  0  0  0999 V2000
  -50.5322   58.1660   62.5352 C   0  0  0  0  0  0  0  0  0  0  0  0
  -51.1733   59.5160   62.7411 C   0  0  0  0  0  0  0  0  0  0  0  0
  -51.0996   60.1689   64.0554 C   0  0  0  0  0  0  0  0  0  0  0  0
  -50.2864   59.5493   65.1700 C   0  0  0  0  0  0  0  0  0  0  0  0
  -48.8189   59.9565   65.0432 C   0  0  0  0  0  0  0  0  0  0  0  0
  -48.1425   60.1951   66.3905 C   0  0  0  0  0  0  0  0  0  0  0  0
  -46.6560   59.8309   66.3473 C   0  0  0  0  0  0  0  0  0  0  0  0
  -45.8863   60.4021   65.1504 C   0  0  0  0  0  0  0  0  0  0  0  0
  -44.3823   60.1104   65.2366 C   0  0  0  0  0  0  0  0  0  0  0  0
  -43.9747   59.5045   66.5820 C   0  0  0  0  0  0  0  0  0  0  0  0
  -42.7418   60.1728   67.2025 C   0  0  0  0  0  0  0  0  0  0  0  0
  -51.1232   57.5666   61.2693 C   0  0  0  0  0  0  0  0  0  0  0  0
  -50.0487   57.0024   60.3570 C   0  0  0  0  0  0  0  0  0  0  0  0
  -48.7305   57.7505   60.5316 C   0  0  0  0  0  0  0  0  0  0  0  0
  -48.2424   58.2741   59.1881 C   0  0  0  0  0  0  0  0  0  0  0  0
  -47.1949   57.3476   58.5910 C   0  0  0  0  0  0  0  0  0  0  0  0
  -47.1666   57.4575   57.0700 C   0  0  0  0  0  0  0  0  0  0  0  0
  -47.8710   56.2619   56.4586 C   0  0  0  0  0  0  0  0  0  0  0  0
  -47.2861   55.1505   56.3931 O   0  0  0  0  0  0  0  0  0  0  0  0
  -49.0408   56.3736   56.0092 O   0  0  0  0  0  0  0  0  0  0  0  0
  -49.4833   57.1984   56.0542 H   0  0  0  0  0  0  0  0  0  0  0  0
 18 19  2  0  0  0
 18 17  1  0  0  0
 18 20  1  0  0  0
 17 16  1  0  0  0
 20 21  1  0  0  0
 16 15  1  0  0  0
 15 14  1  0  0  0
 14 13  1  0  0  0
 13 12  1  0  0  0
 12  1  1  0  0  0
  1  2  1  0  0  0
  2  3  1  0  0  0
  3  4  1  0  0  0
  4  5  1  0  0  0
  5  6  1  0  0  0
  6  7  1  0  0  0
  7  8  1  0  0  0
  8  9  1  0  0  0
  9 10  1  0  0  0
 10 11  1  0  0  0
M  END
> <minimizedAffinity>
-7.72586

> <CNNscore>
0.6625443697

> <CNNaffinity>
6.5902099609

> <CNN_VS>
4.3663063049

> <CNNaffinity_variance>
0.2579248548

$$$$
/media/chris/experiments/cd1a-new-docking/inputs/ligands/4x6d_1_ligand.pdb


 21 20  0  0  0  0  0  0  0  0999 V2000
  -47.6090   58.7029   64.1987 C   0  0  0  0  0  0  0  0  0  0  0  0
  -47.9360   60.0725   64.7400 C   0  0  0  0  0  0  0  0  0  0  0  0
  -48.8892   60.9336   64.0265 C   0  0  0  0  0  0  0  0  0  0  0  0
  -50.2996   60.4552   63.7633 C   0  0  0  0  0  0  0  0  0  0  0  0
  -50.4385   59.9906   62.3140 C   0  0  0  0  0  0  0  0  0  0  0  0
  -50.8224   58.5187   62.1885 C   0  0  0  0  0  0  0  0  0  0  0  0
  -50.1346   57.8569   60.9914 C   0  0  0  0  0  0  0  0  0  0  0  0
  -48.8709   58.5713   60.4973 C   0  0  0  0  0  0  0  0  0  0  0  0
  -47.8761   57.6026   59.8442 C   0  0  0  0  0  0  0  0  0  0  0  0
  -47.4598   58.0430   58.4384 C   0  0  0  0  0  0  0  0  0  0  0  0
  -47.9971   57.1296   57.3300 C   0  0  0  0  0  0  0  0  0  0  0  0
  -46.3019   58.2588   64.8354 C   0  0  0  0  0  0  0  0  0  0  0  0
  -45.4227   59.4409   65.2024 C   0  0  0  0  0  0  0  0  0  0  0  0
  -43.9967   58.9921   65.5070 C   0  0  0  0  0  0  0  0  0  0  0  0
  -43.0492   59.4815   64.4207 C   0  0  0  0  0  0  0  0  0  0  0  0
  -43.3234   60.9366   64.0746 C   0  0  0  0  0  0  0  0  0  0  0  0
  -42.0282   61.6831   63.7716 C   0  0  0  0  0  0  0  0  0  0  0  0
  -41.8241   61.7629   62.2712 C   0  0  0  0  0  0  0  0  0  0  0  0
  -42.5510   62.5166   61.5747 O   0  0  0  0  0  0  0  0  0  0  0  0
  -40.9316   61.0741   61.7127 O   0  0  0  0  0  0  0  0  0  0  0  0
  -40.3860   60.5101   62.2248 H   0  0  0  0  0  0  0  0  0  0  0  0
 18 19  2  0  0  0
 18 17  1  0  0  0
 18 20  1  0  0  0
 17 16  1  0  0  0
 20 21  1  0  0  0
 16 15  1  0  0  0
 15 14  1  0  0  0
 14 13  1  0  0  0
 13 12  1  0  0  0
 12  1  1  0  0  0
  1  2  1  0  0  0
  2  3  1  0  0  0
  3  4  1  0  0  0
  4  5  1  0  0  0
  5  6  1  0  0  0
  6  7  1  0  0  0
  7  8  1  0  0  0
  8  9  1  0  0  0
  9 10  1  0  0  0
 10 11  1  0  0  0
M  END
> <minimizedAffinity>
-6.59583

> <CNNscore>
0.5969496965

> <CNNaffinity>
6.2779073715

> <CNN_VS>
3.7475948334

> <CNNaffinity_variance>
0.2888683677

$$$$
