/media/chris/experiments/cd1a-new-docking/inputs/ligands/4x6d_1_ligand.pdb


 21 20  0  0  0  0  0  0  0  0999 V2000
  -47.1839   58.3241   64.6495 C   0  0  0  0  0  0  0  0  0  0  0  0
  -48.5220   58.1272   65.3177 C   0  0  0  0  0  0  0  0  0  0  0  0
  -49.7455   58.6114   64.6637 C   0  0  0  0  0  0  0  0  0  0  0  0
  -49.6973   59.8191   63.7546 C   0  0  0  0  0  0  0  0  0  0  0  0
  -50.6190   59.6136   62.5530 C   0  0  0  0  0  0  0  0  0  0  0  0
  -50.9911   58.1512   62.3238 C   0  0  0  0  0  0  0  0  0  0  0  0
  -50.2779   57.5735   61.0983 C   0  0  0  0  0  0  0  0  0  0  0  0
  -49.4820   58.5931   60.2747 C   0  0  0  0  0  0  0  0  0  0  0  0
  -48.1134   58.0486   59.8448 C   0  0  0  0  0  0  0  0  0  0  0  0
  -48.1008   57.5633   58.3930 C   0  0  0  0  0  0  0  0  0  0  0  0
  -46.8513   57.9967   57.6168 C   0  0  0  0  0  0  0  0  0  0  0  0
  -46.2409   58.9232   65.6804 C   0  0  0  0  0  0  0  0  0  0  0  0
  -45.5803   60.1919   65.1712 C   0  0  0  0  0  0  0  0  0  0  0  0
  -44.0685   60.1431   65.3707 C   0  0  0  0  0  0  0  0  0  0  0  0
  -43.7390   59.5939   66.7517 C   0  0  0  0  0  0  0  0  0  0  0  0
  -42.3426   60.0121   67.1846 C   0  0  0  0  0  0  0  0  0  0  0  0
  -41.3507   59.8917   66.0322 C   0  0  0  0  0  0  0  0  0  0  0  0
  -40.4564   61.1158   65.9985 C   0  0  0  0  0  0  0  0  0  0  0  0
  -39.2102   60.9902   66.1126 O   0  0  0  0  0  0  0  0  0  0  0  0
  -40.9532   62.2636   65.8609 O   0  0  0  0  0  0  0  0  0  0  0  0
  -41.8806   62.3654   65.7753 H   0  0  0  0  0  0  0  0  0  0  0  0
 18 19  2  0  0  0
 18 17  1  0  0  0
 18 20  1  0  0  0
 17 16  1  0  0  0
 20 21  1  0  0  0
 16 15  1  0  0  0
 15 14  1  0  0  0
 14 13  1  0  0  0
 13 12  1  0  0  0
 12  1  1  0  0  0
  1  2  1  0  0  0
  2  3  1  0  0  0
  3  4  1  0  0  0
  4  5  1  0  0  0
  5  6  1  0  0  0
  6  7  1  0  0  0
  7  8  1  0  0  0
  8  9  1  0  0  0
  9 10  1  0  0  0
 10 11  1  0  0  0
M  END
> <minimizedAffinity>
-7.13169

> <CNNscore>
0.9208508730

> <CNNaffinity>
6.8383011818

> <CNN_VS>
6.2970557213

> <CNNaffinity_variance>
0.4842069149

$$$$
/media/chris/experiments/cd1a-new-docking/inputs/ligands/4x6d_1_ligand.pdb


 21 20  0  0  0  0  0  0  0  0999 V2000
  -45.4515   59.5067   66.1782 C   0  0  0  0  0  0  0  0  0  0  0  0
  -46.8216   59.8204   65.6302 C   0  0  0  0  0  0  0  0  0  0  0  0
  -47.7259   58.7269   65.2489 C   0  0  0  0  0  0  0  0  0  0  0  0
  -48.3243   58.6813   63.8606 C   0  0  0  0  0  0  0  0  0  0  0  0
  -49.6394   59.4589   63.8259 C   0  0  0  0  0  0  0  0  0  0  0  0
  -50.6611   58.8695   62.8571 C   0  0  0  0  0  0  0  0  0  0  0  0
  -50.0536   57.7469   62.0114 C   0  0  0  0  0  0  0  0  0  0  0  0
  -50.8143   57.4295   60.7183 C   0  0  0  0  0  0  0  0  0  0  0  0
  -50.0127   57.8101   59.4666 C   0  0  0  0  0  0  0  0  0  0  0  0
  -48.6035   58.3087   59.7971 C   0  0  0  0  0  0  0  0  0  0  0  0
  -47.5773   58.0068   58.6983 C   0  0  0  0  0  0  0  0  0  0  0  0
  -45.0469   58.1414   65.6458 C   0  0  0  0  0  0  0  0  0  0  0  0
  -43.8626   57.5684   66.4037 C   0  0  0  0  0  0  0  0  0  0  0  0
  -42.6531   57.4008   65.4889 C   0  0  0  0  0  0  0  0  0  0  0  0
  -41.8607   58.6990   65.4237 C   0  0  0  0  0  0  0  0  0  0  0  0
  -41.7287   59.3257   66.8029 C   0  0  0  0  0  0  0  0  0  0  0  0
  -41.8850   60.8414   66.7352 C   0  0  0  0  0  0  0  0  0  0  0  0
  -40.7900   61.4292   65.8665 C   0  0  0  0  0  0  0  0  0  0  0  0
  -41.0866   62.0906   64.8387 O   0  0  0  0  0  0  0  0  0  0  0  0
  -39.5797   61.2566   66.1640 O   0  0  0  0  0  0  0  0  0  0  0  0
  -39.3507   60.7651   66.9281 H   0  0  0  0  0  0  0  0  0  0  0  0
 18 19  2  0  0  0
 18 17  1  0  0  0
 18 20  1  0  0  0
 17 16  1  0  0  0
 20 21  1  0  0  0
 16 15  1  0  0  0
 15 14  1  0  0  0
 14 13  1  0  0  0
 13 12  1  0  0  0
 12  1  1  0  0  0
  1  2  1  0  0  0
  2  3  1  0  0  0
  3  4  1  0  0  0
  4  5  1  0  0  0
  5  6  1  0  0  0
  6  7  1  0  0  0
  7  8  1  0  0  0
  8  9  1  0  0  0
  9 10  1  0  0  0
 10 11  1  0  0  0
M  END
> <minimizedAffinity>
-6.82641

> <CNNscore>
0.8799374700

> <CNNaffinity>
6.8018045425

> <CNN_VS>
5.9851627350

> <CNNaffinity_variance>
0.4541019499

$$$$
/media/chris/experiments/cd1a-new-docking/inputs/ligands/4x6d_1_ligand.pdb


 21 20  0  0  0  0  0  0  0  0999 V2000
  -48.4264   60.2244   65.9307 C   0  0  0  0  0  0  0  0  0  0  0  0
  -49.0693   59.9905   64.5861 C   0  0  0  0  0  0  0  0  0  0  0  0
  -50.5206   60.1577   64.4292 C   0  0  0  0  0  0  0  0  0  0  0  0
  -51.1779   59.8983   63.0920 C   0  0  0  0  0  0  0  0  0  0  0  0
  -50.7348   58.5444   62.5387 C   0  0  0  0  0  0  0  0  0  0  0  0
  -50.0725   58.6429   61.1671 C   0  0  0  0  0  0  0  0  0  0  0  0
  -50.2455   57.3511   60.3636 C   0  0  0  0  0  0  0  0  0  0  0  0
  -49.3586   57.2429   59.1173 C   0  0  0  0  0  0  0  0  0  0  0  0
  -47.9513   57.8051   59.3574 C   0  0  0  0  0  0  0  0  0  0  0  0
  -47.1936   58.0757   58.0550 C   0  0  0  0  0  0  0  0  0  0  0  0
  -47.6667   57.2067   56.8834 C   0  0  0  0  0  0  0  0  0  0  0  0
  -46.9873   59.7429   65.8403 C   0  0  0  0  0  0  0  0  0  0  0  0
  -46.7812   58.4368   66.5864 C   0  0  0  0  0  0  0  0  0  0  0  0
  -45.4435   57.8001   66.2218 C   0  0  0  0  0  0  0  0  0  0  0  0
  -44.9849   58.2892   64.8550 C   0  0  0  0  0  0  0  0  0  0  0  0
  -43.5174   58.6867   64.8837 C   0  0  0  0  0  0  0  0  0  0  0  0
  -43.3241   60.0251   65.5891 C   0  0  0  0  0  0  0  0  0  0  0  0
  -42.5096   59.8235   66.8521 C   0  0  0  0  0  0  0  0  0  0  0  0
  -41.8357   58.7730   67.0074 O   0  0  0  0  0  0  0  0  0  0  0  0
  -42.5052   60.7011   67.7538 O   0  0  0  0  0  0  0  0  0  0  0  0
  -43.0047   61.4864   67.6455 H   0  0  0  0  0  0  0  0  0  0  0  0
 18 19  2  0  0  0
 18 17  1  0  0  0
 18 20  1  0  0  0
 17 16  1  0  0  0
 20 21  1  0  0  0
 16 15  1  0  0  0
 15 14  1  0  0  0
 14 13  1  0  0  0
 13 12  1  0  0  0
 12  1  1  0  0  0
  1  2  1  0  0  0
  2  3  1  0  0  0
  3  4  1  0  0  0
  4  5  1  0  0  0
  5  6  1  0  0  0
  6  7  1  0  0  0
  7  8  1  0  0  0
  8  9  1  0  0  0
  9 10  1  0  0  0
 10 11  1  0  0  0
M  END
> <minimizedAffinity>
-6.93143

> <CNNscore>
0.8277110457

> <CNNaffinity>
6.7665557861

> <CNN_VS>
5.6007528305

> <CNNaffinity_variance>
0.7255842090

$$$$
/media/chris/experiments/cd1a-new-docking/inputs/ligands/4x6d_1_ligand.pdb


 21 20  0  0  0  0  0  0  0  0999 V2000
  -48.4726   57.8124   65.2785 C   0  0  0  0  0  0  0  0  0  0  0  0
  -47.3699   58.8214   65.4831 C   0  0  0  0  0  0  0  0  0  0  0  0
  -46.0760   58.3912   66.0304 C   0  0  0  0  0  0  0  0  0  0  0  0
  -44.9667   57.9450   65.1042 C   0  0  0  0  0  0  0  0  0  0  0  0
  -43.8114   57.3521   65.9099 C   0  0  0  0  0  0  0  0  0  0  0  0
  -42.4705   58.0213   65.6202 C   0  0  0  0  0  0  0  0  0  0  0  0
  -42.6144   59.5405   65.4941 C   0  0  0  0  0  0  0  0  0  0  0  0
  -42.0091   60.1423   64.2201 C   0  0  0  0  0  0  0  0  0  0  0  0
  -42.9133   61.2162   63.6008 C   0  0  0  0  0  0  0  0  0  0  0  0
  -42.1416   62.1999   62.7175 C   0  0  0  0  0  0  0  0  0  0  0  0
  -41.8060   61.6390   61.3304 C   0  0  0  0  0  0  0  0  0  0  0  0
  -49.7903   58.5705   65.2644 C   0  0  0  0  0  0  0  0  0  0  0  0
  -49.8250   59.6215   64.1693 C   0  0  0  0  0  0  0  0  0  0  0  0
  -51.0058   59.3977   63.2293 C   0  0  0  0  0  0  0  0  0  0  0  0
  -50.6199   58.4236   62.1249 C   0  0  0  0  0  0  0  0  0  0  0  0
  -49.1469   58.5572   61.7718 C   0  0  0  0  0  0  0  0  0  0  0  0
  -48.9667   59.0000   60.3234 C   0  0  0  0  0  0  0  0  0  0  0  0
  -48.6246   57.8002   59.4616 C   0  0  0  0  0  0  0  0  0  0  0  0
  -49.4569   57.3671   58.6240 O   0  0  0  0  0  0  0  0  0  0  0  0
  -47.5105   57.2276   59.5807 O   0  0  0  0  0  0  0  0  0  0  0  0
  -46.8852   57.5443   60.2025 H   0  0  0  0  0  0  0  0  0  0  0  0
 18 19  2  0  0  0
 18 17  1  0  0  0
 18 20  1  0  0  0
 17 16  1  0  0  0
 20 21  1  0  0  0
 16 15  1  0  0  0
 15 14  1  0  0  0
 14 13  1  0  0  0
 13 12  1  0  0  0
 12  1  1  0  0  0
  1  2  1  0  0  0
  2  3  1  0  0  0
  3  4  1  0  0  0
  4  5  1  0  0  0
  5  6  1  0  0  0
  6  7  1  0  0  0
  7  8  1  0  0  0
  8  9  1  0  0  0
  9 10  1  0  0  0
 10 11  1  0  0  0
M  END
> <minimizedAffinity>
-6.59567

> <CNNscore>
0.6603294611

> <CNNaffinity>
6.4240708351

> <CNN_VS>
4.2420034409

> <CNNaffinity_variance>
0.8907461166

$$$$
/media/chris/experiments/cd1a-new-docking/inputs/ligands/4x6d_1_ligand.pdb


 21 20  0  0  0  0  0  0  0  0999 V2000
  -43.8979   59.6260   66.1456 C   0  0  0  0  0  0  0  0  0  0  0  0
  -45.0705   59.4072   67.0691 C   0  0  0  0  0  0  0  0  0  0  0  0
  -46.4411   59.5200   66.5518 C   0  0  0  0  0  0  0  0  0  0  0  0
  -46.6863   59.6585   65.0658 C   0  0  0  0  0  0  0  0  0  0  0  0
  -47.7178   58.6307   64.6020 C   0  0  0  0  0  0  0  0  0  0  0  0
  -49.1017   58.8528   65.2064 C   0  0  0  0  0  0  0  0  0  0  0  0
  -49.6767   60.2160   64.8122 C   0  0  0  0  0  0  0  0  0  0  0  0
  -51.0818   60.1708   64.1997 C   0  0  0  0  0  0  0  0  0  0  0  0
  -51.0547   59.7787   62.7165 C   0  0  0  0  0  0  0  0  0  0  0  0
  -49.8254   60.3232   61.9845 C   0  0  0  0  0  0  0  0  0  0  0  0
  -49.1883   59.3094   61.0265 C   0  0  0  0  0  0  0  0  0  0  0  0
  -42.6396   59.6402   66.9986 C   0  0  0  0  0  0  0  0  0  0  0  0
  -41.4037   59.9582   66.1760 C   0  0  0  0  0  0  0  0  0  0  0  0
  -41.0401   58.7955   65.2574 C   0  0  0  0  0  0  0  0  0  0  0  0
  -39.7870   59.1289   64.4599 C   0  0  0  0  0  0  0  0  0  0  0  0
  -38.7509   58.0232   64.5871 C   0  0  0  0  0  0  0  0  0  0  0  0
  -37.3624   58.5982   64.8474 C   0  0  0  0  0  0  0  0  0  0  0  0
  -36.5943   58.6880   63.5431 C   0  0  0  0  0  0  0  0  0  0  0  0
  -36.3464   57.6461   62.8838 O   0  0  0  0  0  0  0  0  0  0  0  0
  -36.1965   59.8019   63.1139 O   0  0  0  0  0  0  0  0  0  0  0  0
  -36.3773   60.5826   63.5993 H   0  0  0  0  0  0  0  0  0  0  0  0
 18 19  2  0  0  0
 18 17  1  0  0  0
 18 20  1  0  0  0
 17 16  1  0  0  0
 20 21  1  0  0  0
 16 15  1  0  0  0
 15 14  1  0  0  0
 14 13  1  0  0  0
 13 12  1  0  0  0
 12  1  1  0  0  0
  1  2  1  0  0  0
  2  3  1  0  0  0
  3  4  1  0  0  0
  4  5  1  0  0  0
  5  6  1  0  0  0
  6  7  1  0  0  0
  7  8  1  0  0  0
  8  9  1  0  0  0
  9 10  1  0  0  0
 10 11  1  0  0  0
M  END
> <minimizedAffinity>
-6.34509

> <CNNscore>
0.6483433843

> <CNNaffinity>
6.2121667862

> <CNN_VS>
4.0276174545

> <CNNaffinity_variance>
0.3639485538

$$$$
/media/chris/experiments/cd1a-new-docking/inputs/ligands/4x6d_1_ligand.pdb


 21 20  0  0  0  0  0  0  0  0999 V2000
  -45.6251   58.4114   64.7703 C   0  0  0  0  0  0  0  0  0  0  0  0
  -47.0547   58.4224   65.2517 C   0  0  0  0  0  0  0  0  0  0  0  0
  -47.4512   59.3159   66.3488 C   0  0  0  0  0  0  0  0  0  0  0  0
  -48.6017   60.2808   66.1683 C   0  0  0  0  0  0  0  0  0  0  0  0
  -49.7175   59.6270   65.3541 C   0  0  0  0  0  0  0  0  0  0  0  0
  -50.1490   60.4585   64.1491 C   0  0  0  0  0  0  0  0  0  0  0  0
  -51.1500   59.7020   63.2715 C   0  0  0  0  0  0  0  0  0  0  0  0
  -50.5839   58.4621   62.5689 C   0  0  0  0  0  0  0  0  0  0  0  0
  -49.3617   58.7947   61.7029 C   0  0  0  0  0  0  0  0  0  0  0  0
  -49.4228   58.1410   60.3199 C   0  0  0  0  0  0  0  0  0  0  0  0
  -48.1725   58.3967   59.4697 C   0  0  0  0  0  0  0  0  0  0  0  0
  -44.8271   59.3277   65.6839 C   0  0  0  0  0  0  0  0  0  0  0  0
  -44.3400   60.5670   64.9544 C   0  0  0  0  0  0  0  0  0  0  0  0
  -43.1774   60.2361   64.0234 C   0  0  0  0  0  0  0  0  0  0  0  0
  -42.6441   61.5073   63.3777 C   0  0  0  0  0  0  0  0  0  0  0  0
  -41.3396   61.9415   64.0274 C   0  0  0  0  0  0  0  0  0  0  0  0
  -40.3670   60.7723   64.1426 C   0  0  0  0  0  0  0  0  0  0  0  0
  -39.9759   60.5749   65.5943 C   0  0  0  0  0  0  0  0  0  0  0  0
  -40.6635   59.8285   66.3372 O   0  0  0  0  0  0  0  0  0  0  0  0
  -38.9658   61.1580   66.0665 O   0  0  0  0  0  0  0  0  0  0  0  0
  -38.4485   61.7156   65.5194 H   0  0  0  0  0  0  0  0  0  0  0  0
 18 19  2  0  0  0
 18 17  1  0  0  0
 18 20  1  0  0  0
 17 16  1  0  0  0
 20 21  1  0  0  0
 16 15  1  0  0  0
 15 14  1  0  0  0
 14 13  1  0  0  0
 13 12  1  0  0  0
 12  1  1  0  0  0
  1  2  1  0  0  0
  2  3  1  0  0  0
  3  4  1  0  0  0
  4  5  1  0  0  0
  5  6  1  0  0  0
  6  7  1  0  0  0
  7  8  1  0  0  0
  8  9  1  0  0  0
  9 10  1  0  0  0
 10 11  1  0  0  0
M  END
> <minimizedAffinity>
-6.43921

> <CNNscore>
0.6198224425

> <CNNaffinity>
6.3753495216

> <CNN_VS>
3.9515848160

> <CNNaffinity_variance>
0.5276197791

$$$$
/media/chris/experiments/cd1a-new-docking/inputs/ligands/4x6d_1_ligand.pdb


 21 20  0  0  0  0  0  0  0  0999 V2000
  -50.4807   60.1571   64.8017 C   0  0  0  0  0  0  0  0  0  0  0  0
  -50.5641   59.0243   63.8089 C   0  0  0  0  0  0  0  0  0  0  0  0
  -50.7443   59.3147   62.3799 C   0  0  0  0  0  0  0  0  0  0  0  0
  -49.7606   60.2038   61.6525 C   0  0  0  0  0  0  0  0  0  0  0  0
  -49.0768   59.4268   60.5280 C   0  0  0  0  0  0  0  0  0  0  0  0
  -48.5221   58.0785   60.9798 C   0  0  0  0  0  0  0  0  0  0  0  0
  -49.1020   56.9258   60.1557 C   0  0  0  0  0  0  0  0  0  0  0  0
  -49.2406   57.2111   58.6554 C   0  0  0  0  0  0  0  0  0  0  0  0
  -48.2821   56.3591   57.8129 C   0  0  0  0  0  0  0  0  0  0  0  0
  -47.4041   57.2020   56.8844 C   0  0  0  0  0  0  0  0  0  0  0  0
  -46.7705   58.4135   57.5790 C   0  0  0  0  0  0  0  0  0  0  0  0
  -49.2723   59.9015   65.6879 C   0  0  0  0  0  0  0  0  0  0  0  0
  -48.0333   59.5766   64.8727 C   0  0  0  0  0  0  0  0  0  0  0  0
  -46.9718   58.8969   65.7325 C   0  0  0  0  0  0  0  0  0  0  0  0
  -46.0743   58.0246   64.8659 C   0  0  0  0  0  0  0  0  0  0  0  0
  -44.6575   58.5750   64.8234 C   0  0  0  0  0  0  0  0  0  0  0  0
  -43.6721   57.6074   65.4709 C   0  0  0  0  0  0  0  0  0  0  0  0
  -42.4367   58.3623   65.9214 C   0  0  0  0  0  0  0  0  0  0  0  0
  -42.4537   59.0167   66.9954 O   0  0  0  0  0  0  0  0  0  0  0  0
  -41.3895   58.3436   65.2242 O   0  0  0  0  0  0  0  0  0  0  0  0
  -41.3690   57.8583   64.4229 H   0  0  0  0  0  0  0  0  0  0  0  0
 18 19  2  0  0  0
 18 17  1  0  0  0
 18 20  1  0  0  0
 17 16  1  0  0  0
 20 21  1  0  0  0
 16 15  1  0  0  0
 15 14  1  0  0  0
 14 13  1  0  0  0
 13 12  1  0  0  0
 12  1  1  0  0  0
  1  2  1  0  0  0
  2  3  1  0  0  0
  3  4  1  0  0  0
  4  5  1  0  0  0
  5  6  1  0  0  0
  6  7  1  0  0  0
  7  8  1  0  0  0
  8  9  1  0  0  0
  9 10  1  0  0  0
 10 11  1  0  0  0
M  END
> <minimizedAffinity>
-6.48071

> <CNNscore>
0.6167377234

> <CNNaffinity>
6.5303435326

> <CNN_VS>
4.0275092125

> <CNNaffinity_variance>
0.5684980154

$$$$
/media/chris/experiments/cd1a-new-docking/inputs/ligands/4x6d_1_ligand.pdb


 21 20  0  0  0  0  0  0  0  0999 V2000
  -48.3701   60.0654   66.0136 C   0  0  0  0  0  0  0  0  0  0  0  0
  -48.9981   58.7491   65.6279 C   0  0  0  0  0  0  0  0  0  0  0  0
  -50.0570   58.7133   64.6098 C   0  0  0  0  0  0  0  0  0  0  0  0
  -50.8137   59.9729   64.2520 C   0  0  0  0  0  0  0  0  0  0  0  0
  -50.8436   60.1592   62.7355 C   0  0  0  0  0  0  0  0  0  0  0  0
  -49.4559   60.1427   62.1001 C   0  0  0  0  0  0  0  0  0  0  0  0
  -49.4996   59.6125   60.6644 C   0  0  0  0  0  0  0  0  0  0  0  0
  -48.8038   58.2623   60.4538 C   0  0  0  0  0  0  0  0  0  0  0  0
  -49.3274   57.5285   59.2120 C   0  0  0  0  0  0  0  0  0  0  0  0
  -48.2042   57.0851   58.2711 C   0  0  0  0  0  0  0  0  0  0  0  0
  -47.1830   58.1910   57.9781 C   0  0  0  0  0  0  0  0  0  0  0  0
  -47.3169   60.3942   64.9679 C   0  0  0  0  0  0  0  0  0  0  0  0
  -46.0264   59.6309   65.2073 C   0  0  0  0  0  0  0  0  0  0  0  0
  -44.8097   60.5250   64.9878 C   0  0  0  0  0  0  0  0  0  0  0  0
  -43.5326   59.6991   65.0555 C   0  0  0  0  0  0  0  0  0  0  0  0
  -42.5283   60.1638   64.0126 C   0  0  0  0  0  0  0  0  0  0  0  0
  -42.8630   61.5654   63.5131 C   0  0  0  0  0  0  0  0  0  0  0  0
  -42.1362   61.8297   62.2088 C   0  0  0  0  0  0  0  0  0  0  0  0
  -41.1371   61.1348   61.8912 O   0  0  0  0  0  0  0  0  0  0  0  0
  -42.5230   62.7464   61.4387 O   0  0  0  0  0  0  0  0  0  0  0  0
  -43.2665   63.2684   61.6683 H   0  0  0  0  0  0  0  0  0  0  0  0
 18 19  2  0  0  0
 18 17  1  0  0  0
 18 20  1  0  0  0
 17 16  1  0  0  0
 20 21  1  0  0  0
 16 15  1  0  0  0
 15 14  1  0  0  0
 14 13  1  0  0  0
 13 12  1  0  0  0
 12  1  1  0  0  0
  1  2  1  0  0  0
  2  3  1  0  0  0
  3  4  1  0  0  0
  4  5  1  0  0  0
  5  6  1  0  0  0
  6  7  1  0  0  0
  7  8  1  0  0  0
  8  9  1  0  0  0
  9 10  1  0  0  0
 10 11  1  0  0  0
M  END
> <minimizedAffinity>
-6.92223

> <CNNscore>
0.6017491817

> <CNNaffinity>
6.3058881760

> <CNN_VS>
3.7945630550

> <CNNaffinity_variance>
0.3672796488

$$$$
/media/chris/experiments/cd1a-new-docking/inputs/ligands/4x6d_1_ligand.pdb


 21 20  0  0  0  0  0  0  0  0999 V2000
  -40.6220   60.7432   64.5090 C   0  0  0  0  0  0  0  0  0  0  0  0
  -42.0869   61.0732   64.3636 C   0  0  0  0  0  0  0  0  0  0  0  0
  -43.0961   60.0205   64.5433 C   0  0  0  0  0  0  0  0  0  0  0  0
  -44.0401   60.0628   65.7241 C   0  0  0  0  0  0  0  0  0  0  0  0
  -45.4004   59.4854   65.3347 C   0  0  0  0  0  0  0  0  0  0  0  0
  -46.3716   59.3904   66.5083 C   0  0  0  0  0  0  0  0  0  0  0  0
  -47.6784   60.1344   66.2200 C   0  0  0  0  0  0  0  0  0  0  0  0
  -47.6219   61.1009   65.0309 C   0  0  0  0  0  0  0  0  0  0  0  0
  -48.6978   60.7917   63.9816 C   0  0  0  0  0  0  0  0  0  0  0  0
  -49.9881   60.2491   64.6014 C   0  0  0  0  0  0  0  0  0  0  0  0
  -51.1779   60.2548   63.6340 C   0  0  0  0  0  0  0  0  0  0  0  0
  -40.5232   59.3915   65.1976 C   0  0  0  0  0  0  0  0  0  0  0  0
  -39.2598   58.6479   64.8026 C   0  0  0  0  0  0  0  0  0  0  0  0
  -38.8061   59.0407   63.3999 C   0  0  0  0  0  0  0  0  0  0  0  0
  -38.0963   57.8717   62.7313 C   0  0  0  0  0  0  0  0  0  0  0  0
  -37.4080   58.3140   61.4496 C   0  0  0  0  0  0  0  0  0  0  0  0
  -36.7111   57.1416   60.7670 C   0  0  0  0  0  0  0  0  0  0  0  0
  -36.2087   57.5708   59.4022 C   0  0  0  0  0  0  0  0  0  0  0  0
  -36.9445   58.2544   58.6452 O   0  0  0  0  0  0  0  0  0  0  0  0
  -35.0568   57.2436   59.0160 O   0  0  0  0  0  0  0  0  0  0  0  0
  -34.5026   56.7344   59.5742 H   0  0  0  0  0  0  0  0  0  0  0  0
 18 19  2  0  0  0
 18 17  1  0  0  0
 18 20  1  0  0  0
 17 16  1  0  0  0
 20 21  1  0  0  0
 16 15  1  0  0  0
 15 14  1  0  0  0
 14 13  1  0  0  0
 13 12  1  0  0  0
 12  1  1  0  0  0
  1  2  1  0  0  0
  2  3  1  0  0  0
  3  4  1  0  0  0
  4  5  1  0  0  0
  5  6  1  0  0  0
  6  7  1  0  0  0
  7  8  1  0  0  0
  8  9  1  0  0  0
  9 10  1  0  0  0
 10 11  1  0  0  0
M  END
> <minimizedAffinity>
-6.36906

> <CNNscore>
0.5940496922

> <CNNaffinity>
5.9550814629

> <CNN_VS>
3.5376143456

> <CNNaffinity_variance>
0.3860168755

$$$$
