/media/chris/experiments/cd1a-new-docking/inputs/ligands/4x6d_1_ligand.pdb


 21 20  0  0  0  0  0  0  0  0999 V2000
  -47.5362   57.9923   65.0468 C   0  0  0  0  0  0  0  0  0  0  0  0
  -48.7624   58.4376   65.8043 C   0  0  0  0  0  0  0  0  0  0  0  0
  -50.0621   58.5006   65.1219 C   0  0  0  0  0  0  0  0  0  0  0  0
  -50.4664   59.7461   64.3652 C   0  0  0  0  0  0  0  0  0  0  0  0
  -50.9714   59.3772   62.9708 C   0  0  0  0  0  0  0  0  0  0  0  0
  -50.3566   58.0891   62.4299 C   0  0  0  0  0  0  0  0  0  0  0  0
  -51.0709   57.6126   61.1623 C   0  0  0  0  0  0  0  0  0  0  0  0
  -50.1703   57.4686   59.9295 C   0  0  0  0  0  0  0  0  0  0  0  0
  -48.8998   58.3222   60.0377 C   0  0  0  0  0  0  0  0  0  0  0  0
  -47.6615   57.6095   59.4878 C   0  0  0  0  0  0  0  0  0  0  0  0
  -47.2819   58.0547   58.0702 C   0  0  0  0  0  0  0  0  0  0  0  0
  -46.6592   57.2123   66.0129 C   0  0  0  0  0  0  0  0  0  0  0  0
  -45.2373   57.7442   66.0397 C   0  0  0  0  0  0  0  0  0  0  0  0
  -44.9392   58.5798   64.7985 C   0  0  0  0  0  0  0  0  0  0  0  0
  -44.4427   59.9610   65.2028 C   0  0  0  0  0  0  0  0  0  0  0  0
  -43.0784   60.2480   64.5959 C   0  0  0  0  0  0  0  0  0  0  0  0
  -42.0015   60.3199   65.6736 C   0  0  0  0  0  0  0  0  0  0  0  0
  -40.9901   61.3908   65.3140 C   0  0  0  0  0  0  0  0  0  0  0  0
  -40.6098   61.5251   64.1227 O   0  0  0  0  0  0  0  0  0  0  0  0
  -40.5214   62.1481   66.2028 O   0  0  0  0  0  0  0  0  0  0  0  0
  -40.7997   62.0544   67.0926 H   0  0  0  0  0  0  0  0  0  0  0  0
 18 19  2  0  0  0
 18 17  1  0  0  0
 18 20  1  0  0  0
 17 16  1  0  0  0
 20 21  1  0  0  0
 16 15  1  0  0  0
 15 14  1  0  0  0
 14 13  1  0  0  0
 13 12  1  0  0  0
 12  1  1  0  0  0
  1  2  1  0  0  0
  2  3  1  0  0  0
  3  4  1  0  0  0
  4  5  1  0  0  0
  5  6  1  0  0  0
  6  7  1  0  0  0
  7  8  1  0  0  0
  8  9  1  0  0  0
  9 10  1  0  0  0
 10 11  1  0  0  0
M  END
> <minimizedAffinity>
-7.06455

> <CNNscore>
0.9209447503

> <CNNaffinity>
7.1071724892

> <CNN_VS>
6.5453133583

> <CNNaffinity_variance>
0.8148522377

$$$$
/media/chris/experiments/cd1a-new-docking/inputs/ligands/4x6d_1_ligand.pdb


 21 20  0  0  0  0  0  0  0  0999 V2000
  -46.0307   57.3214   66.0785 C   0  0  0  0  0  0  0  0  0  0  0  0
  -47.4548   57.3145   65.5810 C   0  0  0  0  0  0  0  0  0  0  0  0
  -48.0138   58.5146   64.9436 C   0  0  0  0  0  0  0  0  0  0  0  0
  -48.2896   58.5299   63.4566 C   0  0  0  0  0  0  0  0  0  0  0  0
  -49.7864   58.3671   63.1948 C   0  0  0  0  0  0  0  0  0  0  0  0
  -50.3236   59.3421   62.1505 C   0  0  0  0  0  0  0  0  0  0  0  0
  -49.6361   59.1521   60.7957 C   0  0  0  0  0  0  0  0  0  0  0  0
  -50.1221   57.9415   59.9895 C   0  0  0  0  0  0  0  0  0  0  0  0
  -48.9584   57.1333   59.4004 C   0  0  0  0  0  0  0  0  0  0  0  0
  -47.6949   57.9752   59.2042 C   0  0  0  0  0  0  0  0  0  0  0  0
  -47.1230   57.8932   57.7836 C   0  0  0  0  0  0  0  0  0  0  0  0
  -45.1223   57.1701   64.8690 C   0  0  0  0  0  0  0  0  0  0  0  0
  -44.1003   58.2899   64.7871 C   0  0  0  0  0  0  0  0  0  0  0  0
  -42.7790   57.8768   65.4285 C   0  0  0  0  0  0  0  0  0  0  0  0
  -42.6831   58.4382   66.8403 C   0  0  0  0  0  0  0  0  0  0  0  0
  -41.7775   59.6591   66.8800 C   0  0  0  0  0  0  0  0  0  0  0  0
  -40.6870   59.5695   65.8174 C   0  0  0  0  0  0  0  0  0  0  0  0
  -39.8449   60.8302   65.8426 C   0  0  0  0  0  0  0  0  0  0  0  0
  -40.3722   61.9356   66.1283 O   0  0  0  0  0  0  0  0  0  0  0  0
  -38.6166   60.7809   65.5740 O   0  0  0  0  0  0  0  0  0  0  0  0
  -38.2164   59.9611   65.3602 H   0  0  0  0  0  0  0  0  0  0  0  0
 18 19  2  0  0  0
 18 17  1  0  0  0
 18 20  1  0  0  0
 17 16  1  0  0  0
 20 21  1  0  0  0
 16 15  1  0  0  0
 15 14  1  0  0  0
 14 13  1  0  0  0
 13 12  1  0  0  0
 12  1  1  0  0  0
  1  2  1  0  0  0
  2  3  1  0  0  0
  3  4  1  0  0  0
  4  5  1  0  0  0
  5  6  1  0  0  0
  6  7  1  0  0  0
  7  8  1  0  0  0
  8  9  1  0  0  0
  9 10  1  0  0  0
 10 11  1  0  0  0
M  END
> <minimizedAffinity>
-6.89621

> <CNNscore>
0.8931344748

> <CNNaffinity>
6.9294176102

> <CNN_VS>
6.1889019012

> <CNNaffinity_variance>
0.6896629930

$$$$
/media/chris/experiments/cd1a-new-docking/inputs/ligands/4x6d_1_ligand.pdb


 21 20  0  0  0  0  0  0  0  0999 V2000
  -46.7756   60.5196   65.4754 C   0  0  0  0  0  0  0  0  0  0  0  0
  -47.5480   59.3922   64.8363 C   0  0  0  0  0  0  0  0  0  0  0  0
  -48.4438   58.5626   65.6538 C   0  0  0  0  0  0  0  0  0  0  0  0
  -49.9351   58.5749   65.4026 C   0  0  0  0  0  0  0  0  0  0  0  0
  -50.3502   59.8919   64.7477 C   0  0  0  0  0  0  0  0  0  0  0  0
  -51.0728   59.7002   63.4170 C   0  0  0  0  0  0  0  0  0  0  0  0
  -50.1611   60.0199   62.2293 C   0  0  0  0  0  0  0  0  0  0  0  0
  -49.3933   58.8191   61.6635 C   0  0  0  0  0  0  0  0  0  0  0  0
  -48.8062   59.1090   60.2758 C   0  0  0  0  0  0  0  0  0  0  0  0
  -48.6918   57.8521   59.4091 C   0  0  0  0  0  0  0  0  0  0  0  0
  -47.3978   57.7942   58.5882 C   0  0  0  0  0  0  0  0  0  0  0  0
  -45.3087   60.3246   65.1275 C   0  0  0  0  0  0  0  0  0  0  0  0
  -44.5492   59.6380   66.2486 C   0  0  0  0  0  0  0  0  0  0  0  0
  -43.8740   58.3621   65.7546 C   0  0  0  0  0  0  0  0  0  0  0  0
  -42.5599   58.1447   66.4917 C   0  0  0  0  0  0  0  0  0  0  0  0
  -41.8407   59.4644   66.7226 C   0  0  0  0  0  0  0  0  0  0  0  0
  -40.7804   59.7072   65.6534 C   0  0  0  0  0  0  0  0  0  0  0  0
  -39.9955   60.9605   65.9883 C   0  0  0  0  0  0  0  0  0  0  0  0
  -40.5921   62.0573   66.1392 O   0  0  0  0  0  0  0  0  0  0  0  0
  -38.7442   60.9139   66.1127 O   0  0  0  0  0  0  0  0  0  0  0  0
  -38.2924   60.1006   66.0018 H   0  0  0  0  0  0  0  0  0  0  0  0
 18 19  2  0  0  0
 18 17  1  0  0  0
 18 20  1  0  0  0
 17 16  1  0  0  0
 20 21  1  0  0  0
 16 15  1  0  0  0
 15 14  1  0  0  0
 14 13  1  0  0  0
 13 12  1  0  0  0
 12  1  1  0  0  0
  1  2  1  0  0  0
  2  3  1  0  0  0
  3  4  1  0  0  0
  4  5  1  0  0  0
  5  6  1  0  0  0
  6  7  1  0  0  0
  7  8  1  0  0  0
  8  9  1  0  0  0
  9 10  1  0  0  0
 10 11  1  0  0  0
M  END
> <minimizedAffinity>
-7.01767

> <CNNscore>
0.8414901495

> <CNNaffinity>
6.6557121277

> <CNN_VS>
5.6007161140

> <CNNaffinity_variance>
0.4725700021

$$$$
/media/chris/experiments/cd1a-new-docking/inputs/ligands/4x6d_1_ligand.pdb


 21 20  0  0  0  0  0  0  0  0999 V2000
  -45.6684   57.9980   64.5975 C   0  0  0  0  0  0  0  0  0  0  0  0
  -46.3448   59.2049   65.1990 C   0  0  0  0  0  0  0  0  0  0  0  0
  -47.7832   59.4189   64.9888 C   0  0  0  0  0  0  0  0  0  0  0  0
  -48.6050   58.3944   64.2388 C   0  0  0  0  0  0  0  0  0  0  0  0
  -50.0576   58.8570   64.1321 C   0  0  0  0  0  0  0  0  0  0  0  0
  -50.6210   58.7481   62.7178 C   0  0  0  0  0  0  0  0  0  0  0  0
  -50.1344   59.8946   61.8275 C   0  0  0  0  0  0  0  0  0  0  0  0
  -49.1055   59.4935   60.7635 C   0  0  0  0  0  0  0  0  0  0  0  0
  -49.1688   57.9966   60.4321 C   0  0  0  0  0  0  0  0  0  0  0  0
  -47.8651   57.4709   59.8256 C   0  0  0  0  0  0  0  0  0  0  0  0
  -47.5340   58.0910   58.4627 C   0  0  0  0  0  0  0  0  0  0  0  0
  -44.9934   57.2399   65.7291 C   0  0  0  0  0  0  0  0  0  0  0  0
  -43.5029   57.0780   65.4897 C   0  0  0  0  0  0  0  0  0  0  0  0
  -42.6921   57.7992   66.5622 C   0  0  0  0  0  0  0  0  0  0  0  0
  -42.6068   59.2856   66.2446 C   0  0  0  0  0  0  0  0  0  0  0  0
  -41.9555   59.5161   64.8900 C   0  0  0  0  0  0  0  0  0  0  0  0
  -42.8523   60.3538   63.9842 C   0  0  0  0  0  0  0  0  0  0  0  0
  -41.9977   61.1819   63.0446 C   0  0  0  0  0  0  0  0  0  0  0  0
  -40.7458   61.1821   63.1649 O   0  0  0  0  0  0  0  0  0  0  0  0
  -42.5333   61.8770   62.1427 O   0  0  0  0  0  0  0  0  0  0  0  0
  -43.4653   61.8822   62.0466 H   0  0  0  0  0  0  0  0  0  0  0  0
 18 19  2  0  0  0
 18 17  1  0  0  0
 18 20  1  0  0  0
 17 16  1  0  0  0
 20 21  1  0  0  0
 16 15  1  0  0  0
 15 14  1  0  0  0
 14 13  1  0  0  0
 13 12  1  0  0  0
 12  1  1  0  0  0
  1  2  1  0  0  0
  2  3  1  0  0  0
  3  4  1  0  0  0
  4  5  1  0  0  0
  5  6  1  0  0  0
  6  7  1  0  0  0
  7  8  1  0  0  0
  8  9  1  0  0  0
  9 10  1  0  0  0
 10 11  1  0  0  0
M  END
> <minimizedAffinity>
-6.46965

> <CNNscore>
0.6615729928

> <CNNaffinity>
6.4394578934

> <CNN_VS>
4.2601714134

> <CNNaffinity_variance>
0.2015981376

$$$$
/media/chris/experiments/cd1a-new-docking/inputs/ligands/4x6d_1_ligand.pdb


 21 20  0  0  0  0  0  0  0  0999 V2000
  -48.2037   60.5477   64.5488 C   0  0  0  0  0  0  0  0  0  0  0  0
  -47.7763   60.4363   65.9913 C   0  0  0  0  0  0  0  0  0  0  0  0
  -47.1082   59.2163   66.4650 C   0  0  0  0  0  0  0  0  0  0  0  0
  -45.6279   59.2290   66.7749 C   0  0  0  0  0  0  0  0  0  0  0  0
  -44.8184   59.3466   65.4840 C   0  0  0  0  0  0  0  0  0  0  0  0
  -43.8118   58.2140   65.3002 C   0  0  0  0  0  0  0  0  0  0  0  0
  -42.3754   58.7406   65.2416 C   0  0  0  0  0  0  0  0  0  0  0  0
  -42.2513   60.2613   65.0871 C   0  0  0  0  0  0  0  0  0  0  0  0
  -41.8259   60.6664   63.6696 C   0  0  0  0  0  0  0  0  0  0  0  0
  -42.6324   61.8492   63.1269 C   0  0  0  0  0  0  0  0  0  0  0  0
  -42.3019   62.1940   61.6696 C   0  0  0  0  0  0  0  0  0  0  0  0
  -48.5483   59.1488   64.0638 C   0  0  0  0  0  0  0  0  0  0  0  0
  -50.0477   58.9107   64.0470 C   0  0  0  0  0  0  0  0  0  0  0  0
  -50.5910   58.9258   62.6213 C   0  0  0  0  0  0  0  0  0  0  0  0
  -49.9491   57.8138   61.8034 C   0  0  0  0  0  0  0  0  0  0  0  0
  -49.4438   58.3414   60.4699 C   0  0  0  0  0  0  0  0  0  0  0  0
  -48.1086   57.7051   60.0973 C   0  0  0  0  0  0  0  0  0  0  0  0
  -48.3040   56.7528   58.9337 C   0  0  0  0  0  0  0  0  0  0  0  0
  -48.8154   57.1639   57.8607 O   0  0  0  0  0  0  0  0  0  0  0  0
  -47.9612   55.5463   59.0340 O   0  0  0  0  0  0  0  0  0  0  0  0
  -47.5795   55.2323   59.8300 H   0  0  0  0  0  0  0  0  0  0  0  0
 18 19  2  0  0  0
 18 17  1  0  0  0
 18 20  1  0  0  0
 17 16  1  0  0  0
 20 21  1  0  0  0
 16 15  1  0  0  0
 15 14  1  0  0  0
 14 13  1  0  0  0
 13 12  1  0  0  0
 12  1  1  0  0  0
  1  2  1  0  0  0
  2  3  1  0  0  0
  3  4  1  0  0  0
  4  5  1  0  0  0
  5  6  1  0  0  0
  6  7  1  0  0  0
  7  8  1  0  0  0
  8  9  1  0  0  0
  9 10  1  0  0  0
 10 11  1  0  0  0
M  END
> <minimizedAffinity>
-6.54998

> <CNNscore>
0.6481095552

> <CNNaffinity>
6.4825363159

> <CNN_VS>
4.2013936043

> <CNNaffinity_variance>
0.7387618423

$$$$
/media/chris/experiments/cd1a-new-docking/inputs/ligands/4x6d_1_ligand.pdb


 21 20  0  0  0  0  0  0  0  0999 V2000
  -48.4134   57.9200   65.3738 C   0  0  0  0  0  0  0  0  0  0  0  0
  -49.8521   58.3601   65.2627 C   0  0  0  0  0  0  0  0  0  0  0  0
  -50.1894   59.7880   65.3428 C   0  0  0  0  0  0  0  0  0  0  0  0
  -51.1663   60.3968   64.3619 C   0  0  0  0  0  0  0  0  0  0  0  0
  -51.0808   59.6786   63.0156 C   0  0  0  0  0  0  0  0  0  0  0  0
  -50.0148   60.2597   62.0907 C   0  0  0  0  0  0  0  0  0  0  0  0
  -49.2245   59.1581   61.3793 C   0  0  0  0  0  0  0  0  0  0  0  0
  -49.9925   57.8481   61.1658 C   0  0  0  0  0  0  0  0  0  0  0  0
  -50.0754   57.4605   59.6835 C   0  0  0  0  0  0  0  0  0  0  0  0
  -48.7227   57.5536   58.9726 C   0  0  0  0  0  0  0  0  0  0  0  0
  -47.9655   56.2208   58.9274 C   0  0  0  0  0  0  0  0  0  0  0  0
  -47.5737   58.8885   64.5566 C   0  0  0  0  0  0  0  0  0  0  0  0
  -46.3660   59.3824   65.3329 C   0  0  0  0  0  0  0  0  0  0  0  0
  -45.5394   58.2156   65.8650 C   0  0  0  0  0  0  0  0  0  0  0  0
  -44.7516   57.5714   64.7327 C   0  0  0  0  0  0  0  0  0  0  0  0
  -43.3861   57.1077   65.2149 C   0  0  0  0  0  0  0  0  0  0  0  0
  -42.9899   57.8152   66.5068 C   0  0  0  0  0  0  0  0  0  0  0  0
  -41.8464   58.7728   66.2343 C   0  0  0  0  0  0  0  0  0  0  0  0
  -41.0581   58.5587   65.2780 O   0  0  0  0  0  0  0  0  0  0  0  0
  -41.6750   59.7838   66.9636 O   0  0  0  0  0  0  0  0  0  0  0  0
  -42.2579   59.9502   67.6780 H   0  0  0  0  0  0  0  0  0  0  0  0
 18 19  2  0  0  0
 18 17  1  0  0  0
 18 20  1  0  0  0
 17 16  1  0  0  0
 20 21  1  0  0  0
 16 15  1  0  0  0
 15 14  1  0  0  0
 14 13  1  0  0  0
 13 12  1  0  0  0
 12  1  1  0  0  0
  1  2  1  0  0  0
  2  3  1  0  0  0
  3  4  1  0  0  0
  4  5  1  0  0  0
  5  6  1  0  0  0
  6  7  1  0  0  0
  7  8  1  0  0  0
  8  9  1  0  0  0
  9 10  1  0  0  0
 10 11  1  0  0  0
M  END
> <minimizedAffinity>
-6.79780

> <CNNscore>
0.5764964819

> <CNNaffinity>
6.5435934067

> <CNN_VS>
3.7723586559

> <CNNaffinity_variance>
0.3160899878

$$$$
/media/chris/experiments/cd1a-new-docking/inputs/ligands/4x6d_1_ligand.pdb


 21 20  0  0  0  0  0  0  0  0999 V2000
  -43.2800   60.8452   63.9612 C   0  0  0  0  0  0  0  0  0  0  0  0
  -44.1140   60.3092   65.0983 C   0  0  0  0  0  0  0  0  0  0  0  0
  -45.5799   60.3824   65.0292 C   0  0  0  0  0  0  0  0  0  0  0  0
  -46.4259   59.7843   66.1310 C   0  0  0  0  0  0  0  0  0  0  0  0
  -47.9095   60.0038   65.8368 C   0  0  0  0  0  0  0  0  0  0  0  0
  -48.7304   58.7182   65.8938 C   0  0  0  0  0  0  0  0  0  0  0  0
  -49.7253   58.6330   64.7333 C   0  0  0  0  0  0  0  0  0  0  0  0
  -50.6604   59.8405   64.5948 C   0  0  0  0  0  0  0  0  0  0  0  0
  -51.0618   60.0977   63.1364 C   0  0  0  0  0  0  0  0  0  0  0  0
  -50.0876   59.4692   62.1366 C   0  0  0  0  0  0  0  0  0  0  0  0
  -49.5312   60.4705   61.1168 C   0  0  0  0  0  0  0  0  0  0  0  0
  -41.8578   60.3473   64.1619 C   0  0  0  0  0  0  0  0  0  0  0  0
  -41.7423   59.4436   65.3765 C   0  0  0  0  0  0  0  0  0  0  0  0
  -40.4259   58.6724   65.3651 C   0  0  0  0  0  0  0  0  0  0  0  0
  -39.5930   59.0743   64.1559 C   0  0  0  0  0  0  0  0  0  0  0  0
  -38.4399   58.1061   63.9433 C   0  0  0  0  0  0  0  0  0  0  0  0
  -38.0443   58.0369   62.4718 C   0  0  0  0  0  0  0  0  0  0  0  0
  -36.5762   57.6765   62.3543 C   0  0  0  0  0  0  0  0  0  0  0  0
  -35.8525   57.6346   63.3820 O   0  0  0  0  0  0  0  0  0  0  0  0
  -36.0711   57.4220   61.2304 O   0  0  0  0  0  0  0  0  0  0  0  0
  -36.6036   57.4511   60.4600 H   0  0  0  0  0  0  0  0  0  0  0  0
 18 19  2  0  0  0
 18 17  1  0  0  0
 18 20  1  0  0  0
 17 16  1  0  0  0
 20 21  1  0  0  0
 16 15  1  0  0  0
 15 14  1  0  0  0
 14 13  1  0  0  0
 13 12  1  0  0  0
 12  1  1  0  0  0
  1  2  1  0  0  0
  2  3  1  0  0  0
  3  4  1  0  0  0
  4  5  1  0  0  0
  5  6  1  0  0  0
  6  7  1  0  0  0
  7  8  1  0  0  0
  8  9  1  0  0  0
  9 10  1  0  0  0
 10 11  1  0  0  0
M  END
> <minimizedAffinity>
-6.30155

> <CNNscore>
0.5480555296

> <CNNaffinity>
6.1845264435

> <CNN_VS>
3.3894639015

> <CNNaffinity_variance>
0.5876577497

$$$$
/media/chris/experiments/cd1a-new-docking/inputs/ligands/4x6d_1_ligand.pdb


 21 20  0  0  0  0  0  0  0  0999 V2000
  -44.7568   58.3104   64.8910 C   0  0  0  0  0  0  0  0  0  0  0  0
  -45.2567   59.2446   65.9648 C   0  0  0  0  0  0  0  0  0  0  0  0
  -46.5518   59.9197   65.8035 C   0  0  0  0  0  0  0  0  0  0  0  0
  -47.5692   59.3916   64.8168 C   0  0  0  0  0  0  0  0  0  0  0  0
  -48.3674   58.2479   65.4415 C   0  0  0  0  0  0  0  0  0  0  0  0
  -49.8771   58.4175   65.2939 C   0  0  0  0  0  0  0  0  0  0  0  0
  -50.2794   59.8947   65.2777 C   0  0  0  0  0  0  0  0  0  0  0  0
  -51.1530   60.3127   64.0887 C   0  0  0  0  0  0  0  0  0  0  0  0
  -51.0438   59.3292   62.9160 C   0  0  0  0  0  0  0  0  0  0  0  0
  -50.0323   59.7809   61.8593 C   0  0  0  0  0  0  0  0  0  0  0  0
  -48.9878   58.7107   61.5195 C   0  0  0  0  0  0  0  0  0  0  0  0
  -43.3125   57.9674   65.2183 C   0  0  0  0  0  0  0  0  0  0  0  0
  -42.3788   59.1320   64.9402 C   0  0  0  0  0  0  0  0  0  0  0  0
  -41.0145   58.9094   65.5858 C   0  0  0  0  0  0  0  0  0  0  0  0
  -39.9241   58.9156   64.5236 C   0  0  0  0  0  0  0  0  0  0  0  0
  -39.6069   60.3342   64.0775 C   0  0  0  0  0  0  0  0  0  0  0  0
  -39.7869   60.4899   62.5709 C   0  0  0  0  0  0  0  0  0  0  0  0
  -38.4441   60.3551   61.8797 C   0  0  0  0  0  0  0  0  0  0  0  0
  -37.3851   60.6336   62.4984 O   0  0  0  0  0  0  0  0  0  0  0  0
  -38.3795   59.9693   60.6838 O   0  0  0  0  0  0  0  0  0  0  0  0
  -39.1638   59.7600   60.2161 H   0  0  0  0  0  0  0  0  0  0  0  0
 18 19  2  0  0  0
 18 17  1  0  0  0
 18 20  1  0  0  0
 17 16  1  0  0  0
 20 21  1  0  0  0
 16 15  1  0  0  0
 15 14  1  0  0  0
 14 13  1  0  0  0
 13 12  1  0  0  0
 12  1  1  0  0  0
  1  2  1  0  0  0
  2  3  1  0  0  0
  3  4  1  0  0  0
  4  5  1  0  0  0
  5  6  1  0  0  0
  6  7  1  0  0  0
  7  8  1  0  0  0
  8  9  1  0  0  0
  9 10  1  0  0  0
 10 11  1  0  0  0
M  END
> <minimizedAffinity>
-6.35196

> <CNNscore>
0.5383068323

> <CNNaffinity>
6.1956415176

> <CNN_VS>
3.3351562023

> <CNNaffinity_variance>
0.2895567715

$$$$
/media/chris/experiments/cd1a-new-docking/inputs/ligands/4x6d_1_ligand.pdb


 21 20  0  0  0  0  0  0  0  0999 V2000
  -44.0796   59.4331   64.6894 C   0  0  0  0  0  0  0  0  0  0  0  0
  -45.1653   60.3377   65.2173 C   0  0  0  0  0  0  0  0  0  0  0  0
  -46.5279   59.8184   65.3979 C   0  0  0  0  0  0  0  0  0  0  0  0
  -47.6935   60.7707   65.5454 C   0  0  0  0  0  0  0  0  0  0  0  0
  -48.3566   61.0088   64.1892 C   0  0  0  0  0  0  0  0  0  0  0  0
  -49.8734   60.8417   64.2239 C   0  0  0  0  0  0  0  0  0  0  0  0
  -50.3948   60.1635   62.9542 C   0  0  0  0  0  0  0  0  0  0  0  0
  -50.4732   58.6336   63.0255 C   0  0  0  0  0  0  0  0  0  0  0  0
  -49.3509   57.9585   62.2261 C   0  0  0  0  0  0  0  0  0  0  0  0
  -49.2256   58.5101   60.8035 C   0  0  0  0  0  0  0  0  0  0  0  0
  -50.1862   57.8492   59.8073 C   0  0  0  0  0  0  0  0  0  0  0  0
  -42.9655   60.3183   64.1548 C   0  0  0  0  0  0  0  0  0  0  0  0
  -41.9130   60.6013   65.2119 C   0  0  0  0  0  0  0  0  0  0  0  0
  -41.5256   59.3276   65.9571 C   0  0  0  0  0  0  0  0  0  0  0  0
  -40.5489   58.5090   65.1244 C   0  0  0  0  0  0  0  0  0  0  0  0
  -39.4813   59.3986   64.5072 C   0  0  0  0  0  0  0  0  0  0  0  0
  -38.1066   59.0959   65.0946 C   0  0  0  0  0  0  0  0  0  0  0  0
  -37.4723   60.3785   65.5964 C   0  0  0  0  0  0  0  0  0  0  0  0
  -37.9649   60.9819   66.5838 O   0  0  0  0  0  0  0  0  0  0  0  0
  -36.4539   60.8501   65.0274 O   0  0  0  0  0  0  0  0  0  0  0  0
  -36.0810   60.4065   64.2912 H   0  0  0  0  0  0  0  0  0  0  0  0
 18 19  2  0  0  0
 18 17  1  0  0  0
 18 20  1  0  0  0
 17 16  1  0  0  0
 20 21  1  0  0  0
 16 15  1  0  0  0
 15 14  1  0  0  0
 14 13  1  0  0  0
 13 12  1  0  0  0
 12  1  1  0  0  0
  1  2  1  0  0  0
  2  3  1  0  0  0
  3  4  1  0  0  0
  4  5  1  0  0  0
  5  6  1  0  0  0
  6  7  1  0  0  0
  7  8  1  0  0  0
  8  9  1  0  0  0
  9 10  1  0  0  0
 10 11  1  0  0  0
M  END
> <minimizedAffinity>
-6.35366

> <CNNscore>
0.5274346471

> <CNNaffinity>
6.0354080200

> <CNN_VS>
3.1832833290

> <CNNaffinity_variance>
0.2197962254

$$$$
