/media/chris/experiments/cd1a-new-docking/inputs/ligands/4x6d_1_ligand.pdb


 21 20  0  0  0  0  0  0  0  0999 V2000
  -46.6203   57.1487   65.8466 C   0  0  0  0  0  0  0  0  0  0  0  0
  -47.1386   58.2628   64.9715 C   0  0  0  0  0  0  0  0  0  0  0  0
  -47.3724   59.5956   65.5443 C   0  0  0  0  0  0  0  0  0  0  0  0
  -48.5121   60.4528   65.0405 C   0  0  0  0  0  0  0  0  0  0  0  0
  -49.8524   59.7927   65.3619 C   0  0  0  0  0  0  0  0  0  0  0  0
  -51.0057   60.3327   64.5204 C   0  0  0  0  0  0  0  0  0  0  0  0
  -50.8647   59.9339   63.0489 C   0  0  0  0  0  0  0  0  0  0  0  0
  -50.6760   58.4321   62.8026 C   0  0  0  0  0  0  0  0  0  0  0  0
  -50.3754   58.1201   61.3306 C   0  0  0  0  0  0  0  0  0  0  0  0
  -49.4308   59.1414   60.6918 C   0  0  0  0  0  0  0  0  0  0  0  0
  -48.3177   58.5007   59.8537 C   0  0  0  0  0  0  0  0  0  0  0  0
  -45.2512   57.5671   66.3579 C   0  0  0  0  0  0  0  0  0  0  0  0
  -44.2214   57.6106   65.2431 C   0  0  0  0  0  0  0  0  0  0  0  0
  -43.4863   58.9475   65.2251 C   0  0  0  0  0  0  0  0  0  0  0  0
  -43.6194   59.6376   66.5755 C   0  0  0  0  0  0  0  0  0  0  0  0
  -42.2537   59.9925   67.1421 C   0  0  0  0  0  0  0  0  0  0  0  0
  -41.1588   59.8028   66.0973 C   0  0  0  0  0  0  0  0  0  0  0  0
  -40.3231   61.0641   65.9986 C   0  0  0  0  0  0  0  0  0  0  0  0
  -39.0712   61.0011   66.0995 O   0  0  0  0  0  0  0  0  0  0  0  0
  -40.8747   62.1808   65.8201 O   0  0  0  0  0  0  0  0  0  0  0  0
  -41.8070   62.2361   65.7439 H   0  0  0  0  0  0  0  0  0  0  0  0
 18 19  2  0  0  0
 18 17  1  0  0  0
 18 20  1  0  0  0
 17 16  1  0  0  0
 20 21  1  0  0  0
 16 15  1  0  0  0
 15 14  1  0  0  0
 14 13  1  0  0  0
 13 12  1  0  0  0
 12  1  1  0  0  0
  1  2  1  0  0  0
  2  3  1  0  0  0
  3  4  1  0  0  0
  4  5  1  0  0  0
  5  6  1  0  0  0
  6  7  1  0  0  0
  7  8  1  0  0  0
  8  9  1  0  0  0
  9 10  1  0  0  0
 10 11  1  0  0  0
M  END
> <minimizedAffinity>
-6.85538

> <CNNscore>
0.8611243367

> <CNNaffinity>
6.6777763367

> <CNN_VS>
5.7503957748

> <CNNaffinity_variance>
0.5320834517

$$$$
/media/chris/experiments/cd1a-new-docking/inputs/ligands/4x6d_1_ligand.pdb


 21 20  0  0  0  0  0  0  0  0999 V2000
  -47.7661   58.2276   64.7275 C   0  0  0  0  0  0  0  0  0  0  0  0
  -48.3626   58.5505   63.3800 C   0  0  0  0  0  0  0  0  0  0  0  0
  -49.7659   58.2160   63.1012 C   0  0  0  0  0  0  0  0  0  0  0  0
  -50.4128   58.6585   61.8077 C   0  0  0  0  0  0  0  0  0  0  0  0
  -50.8821   57.4434   61.0085 C   0  0  0  0  0  0  0  0  0  0  0  0
  -49.7437   56.7118   60.3024 C   0  0  0  0  0  0  0  0  0  0  0  0
  -49.1921   57.5266   59.1293 C   0  0  0  0  0  0  0  0  0  0  0  0
  -47.6714   57.4486   58.9480 C   0  0  0  0  0  0  0  0  0  0  0  0
  -47.2393   57.8084   57.5204 C   0  0  0  0  0  0  0  0  0  0  0  0
  -47.8870   56.9100   56.4636 C   0  0  0  0  0  0  0  0  0  0  0  0
  -47.4940   55.4335   56.5956 C   0  0  0  0  0  0  0  0  0  0  0  0
  -46.8255   59.3636   65.0961 C   0  0  0  0  0  0  0  0  0  0  0  0
  -45.6003   58.8631   65.8401 C   0  0  0  0  0  0  0  0  0  0  0  0
  -44.4601   59.8742   65.7654 C   0  0  0  0  0  0  0  0  0  0  0  0
  -43.5742   59.5780   64.5633 C   0  0  0  0  0  0  0  0  0  0  0  0
  -42.8280   60.8255   64.1169 C   0  0  0  0  0  0  0  0  0  0  0  0
  -41.3201   60.6440   64.2578 C   0  0  0  0  0  0  0  0  0  0  0  0
  -40.9100   60.8797   65.6985 C   0  0  0  0  0  0  0  0  0  0  0  0
  -40.9301   59.9308   66.5236 O   0  0  0  0  0  0  0  0  0  0  0  0
  -40.5516   62.0241   66.0793 O   0  0  0  0  0  0  0  0  0  0  0  0
  -40.5339   62.7362   65.4706 H   0  0  0  0  0  0  0  0  0  0  0  0
 18 19  2  0  0  0
 18 17  1  0  0  0
 18 20  1  0  0  0
 17 16  1  0  0  0
 20 21  1  0  0  0
 16 15  1  0  0  0
 15 14  1  0  0  0
 14 13  1  0  0  0
 13 12  1  0  0  0
 12  1  1  0  0  0
  1  2  1  0  0  0
  2  3  1  0  0  0
  3  4  1  0  0  0
  4  5  1  0  0  0
  5  6  1  0  0  0
  6  7  1  0  0  0
  7  8  1  0  0  0
  8  9  1  0  0  0
  9 10  1  0  0  0
 10 11  1  0  0  0
M  END
> <minimizedAffinity>
-7.19010

> <CNNscore>
0.8547179103

> <CNNaffinity>
6.7073378563

> <CNN_VS>
5.7328820229

> <CNNaffinity_variance>
0.4824817181

$$$$
/media/chris/experiments/cd1a-new-docking/inputs/ligands/4x6d_1_ligand.pdb


 21 20  0  0  0  0  0  0  0  0999 V2000
  -45.7858   60.3965   65.1219 C   0  0  0  0  0  0  0  0  0  0  0  0
  -47.2455   60.4811   65.4932 C   0  0  0  0  0  0  0  0  0  0  0  0
  -48.1616   61.2943   64.6818 C   0  0  0  0  0  0  0  0  0  0  0  0
  -48.9014   60.6759   63.5165 C   0  0  0  0  0  0  0  0  0  0  0  0
  -50.3253   60.3061   63.9305 C   0  0  0  0  0  0  0  0  0  0  0  0
  -51.1282   59.6555   62.8071 C   0  0  0  0  0  0  0  0  0  0  0  0
  -50.7433   58.1858   62.6174 C   0  0  0  0  0  0  0  0  0  0  0  0
  -50.9026   57.6565   61.1870 C   0  0  0  0  0  0  0  0  0  0  0  0
  -49.5738   57.1603   60.6019 C   0  0  0  0  0  0  0  0  0  0  0  0
  -48.5915   58.2998   60.3188 C   0  0  0  0  0  0  0  0  0  0  0  0
  -47.8253   58.1302   59.0012 C   0  0  0  0  0  0  0  0  0  0  0  0
  -45.1731   59.2625   65.9281 C   0  0  0  0  0  0  0  0  0  0  0  0
  -44.6955   58.1301   65.0366 C   0  0  0  0  0  0  0  0  0  0  0  0
  -43.2841   57.6906   65.4142 C   0  0  0  0  0  0  0  0  0  0  0  0
  -42.7087   58.6241   66.4701 C   0  0  0  0  0  0  0  0  0  0  0  0
  -41.3427   59.1440   66.0506 C   0  0  0  0  0  0  0  0  0  0  0  0
  -41.4598   60.1158   64.8809 C   0  0  0  0  0  0  0  0  0  0  0  0
  -40.7634   61.4175   65.2271 C   0  0  0  0  0  0  0  0  0  0  0  0
  -41.0573   62.4737   64.6109 O   0  0  0  0  0  0  0  0  0  0  0  0
  -39.8855   61.4499   66.1279 O   0  0  0  0  0  0  0  0  0  0  0  0
  -39.6609   60.6673   66.5916 H   0  0  0  0  0  0  0  0  0  0  0  0
 18 19  2  0  0  0
 18 17  1  0  0  0
 18 20  1  0  0  0
 17 16  1  0  0  0
 20 21  1  0  0  0
 16 15  1  0  0  0
 15 14  1  0  0  0
 14 13  1  0  0  0
 13 12  1  0  0  0
 12  1  1  0  0  0
  1  2  1  0  0  0
  2  3  1  0  0  0
  3  4  1  0  0  0
  4  5  1  0  0  0
  5  6  1  0  0  0
  6  7  1  0  0  0
  7  8  1  0  0  0
  8  9  1  0  0  0
  9 10  1  0  0  0
 10 11  1  0  0  0
M  END
> <minimizedAffinity>
-6.96527

> <CNNscore>
0.7797989845

> <CNNaffinity>
6.5328836441

> <CNN_VS>
5.0943360329

> <CNNaffinity_variance>
0.5248059034

$$$$
/media/chris/experiments/cd1a-new-docking/inputs/ligands/4x6d_1_ligand.pdb


 21 20  0  0  0  0  0  0  0  0999 V2000
  -44.5534   57.6617   66.2238 C   0  0  0  0  0  0  0  0  0  0  0  0
  -45.9741   57.2164   65.9805 C   0  0  0  0  0  0  0  0  0  0  0  0
  -47.0921   58.0663   66.4126 C   0  0  0  0  0  0  0  0  0  0  0  0
  -48.2206   58.3855   65.4576 C   0  0  0  0  0  0  0  0  0  0  0  0
  -48.9789   59.6252   65.9306 C   0  0  0  0  0  0  0  0  0  0  0  0
  -50.4310   59.6571   65.4617 C   0  0  0  0  0  0  0  0  0  0  0  0
  -50.5573   60.2579   64.0590 C   0  0  0  0  0  0  0  0  0  0  0  0
  -51.1778   59.3258   63.0112 C   0  0  0  0  0  0  0  0  0  0  0  0
  -50.1652   58.9060   61.9376 C   0  0  0  0  0  0  0  0  0  0  0  0
  -50.6400   57.7047   61.1160 C   0  0  0  0  0  0  0  0  0  0  0  0
  -49.8440   57.4994   59.8214 C   0  0  0  0  0  0  0  0  0  0  0  0
  -44.5965   59.1225   66.6423 C   0  0  0  0  0  0  0  0  0  0  0  0
  -43.2047   59.6879   66.8626 C   0  0  0  0  0  0  0  0  0  0  0  0
  -42.1318   58.6698   66.4879 C   0  0  0  0  0  0  0  0  0  0  0  0
  -41.2442   59.2256   65.3830 C   0  0  0  0  0  0  0  0  0  0  0  0
  -41.7024   60.6135   64.9634 C   0  0  0  0  0  0  0  0  0  0  0  0
  -42.4869   60.5617   63.6565 C   0  0  0  0  0  0  0  0  0  0  0  0
  -42.1276   61.7584   62.7975 C   0  0  0  0  0  0  0  0  0  0  0  0
  -41.8273   62.8544   63.3362 O   0  0  0  0  0  0  0  0  0  0  0  0
  -42.1314   61.6656   61.5427 O   0  0  0  0  0  0  0  0  0  0  0  0
  -42.3540   60.8525   61.1338 H   0  0  0  0  0  0  0  0  0  0  0  0
 18 19  2  0  0  0
 18 17  1  0  0  0
 18 20  1  0  0  0
 17 16  1  0  0  0
 20 21  1  0  0  0
 16 15  1  0  0  0
 15 14  1  0  0  0
 14 13  1  0  0  0
 13 12  1  0  0  0
 12  1  1  0  0  0
  1  2  1  0  0  0
  2  3  1  0  0  0
  3  4  1  0  0  0
  4  5  1  0  0  0
  5  6  1  0  0  0
  6  7  1  0  0  0
  7  8  1  0  0  0
  8  9  1  0  0  0
  9 10  1  0  0  0
 10 11  1  0  0  0
M  END
> <minimizedAffinity>
-6.48840

> <CNNscore>
0.7663571239

> <CNNaffinity>
6.5634040833

> <CNN_VS>
5.0299115181

> <CNNaffinity_variance>
0.7738888264

$$$$
/media/chris/experiments/cd1a-new-docking/inputs/ligands/4x6d_1_ligand.pdb


 21 20  0  0  0  0  0  0  0  0999 V2000
  -50.8777   59.6513   62.6662 C   0  0  0  0  0  0  0  0  0  0  0  0
  -50.8641   59.9205   64.1506 C   0  0  0  0  0  0  0  0  0  0  0  0
  -49.9427   59.1776   65.0212 C   0  0  0  0  0  0  0  0  0  0  0  0
  -49.0461   59.9163   65.9896 C   0  0  0  0  0  0  0  0  0  0  0  0
  -47.8365   60.4936   65.2552 C   0  0  0  0  0  0  0  0  0  0  0  0
  -46.5113   59.8896   65.7119 C   0  0  0  0  0  0  0  0  0  0  0  0
  -46.7212   58.8111   66.7782 C   0  0  0  0  0  0  0  0  0  0  0  0
  -46.0759   57.4564   66.4616 C   0  0  0  0  0  0  0  0  0  0  0  0
  -45.4157   57.4392   65.0766 C   0  0  0  0  0  0  0  0  0  0  0  0
  -43.9518   56.9939   65.1261 C   0  0  0  0  0  0  0  0  0  0  0  0
  -42.9709   58.1502   65.3548 C   0  0  0  0  0  0  0  0  0  0  0  0
  -49.6465   60.3139   62.0693 C   0  0  0  0  0  0  0  0  0  0  0  0
  -49.1834   59.6102   60.8062 C   0  0  0  0  0  0  0  0  0  0  0  0
  -49.9237   58.2908   60.6085 C   0  0  0  0  0  0  0  0  0  0  0  0
  -49.3284   57.5259   59.4347 C   0  0  0  0  0  0  0  0  0  0  0  0
  -47.8605   57.8751   59.2459 C   0  0  0  0  0  0  0  0  0  0  0  0
  -47.4397   57.7125   57.7889 C   0  0  0  0  0  0  0  0  0  0  0  0
  -47.9182   56.3721   57.2659 C   0  0  0  0  0  0  0  0  0  0  0  0
  -48.7383   56.3225   56.3138 O   0  0  0  0  0  0  0  0  0  0  0  0
  -47.5029   55.3023   57.7820 O   0  0  0  0  0  0  0  0  0  0  0  0
  -46.8918   55.3309   58.4917 H   0  0  0  0  0  0  0  0  0  0  0  0
 18 19  2  0  0  0
 18 17  1  0  0  0
 18 20  1  0  0  0
 17 16  1  0  0  0
 20 21  1  0  0  0
 16 15  1  0  0  0
 15 14  1  0  0  0
 14 13  1  0  0  0
 13 12  1  0  0  0
 12  1  1  0  0  0
  1  2  1  0  0  0
  2  3  1  0  0  0
  3  4  1  0  0  0
  4  5  1  0  0  0
  5  6  1  0  0  0
  6  7  1  0  0  0
  7  8  1  0  0  0
  8  9  1  0  0  0
  9 10  1  0  0  0
 10 11  1  0  0  0
M  END
> <minimizedAffinity>
-7.07692

> <CNNscore>
0.7652465701

> <CNNaffinity>
6.7845945358

> <CNN_VS>
5.1918878555

> <CNNaffinity_variance>
0.5803965330

$$$$
/media/chris/experiments/cd1a-new-docking/inputs/ligands/4x6d_1_ligand.pdb


 21 20  0  0  0  0  0  0  0  0999 V2000
  -50.2756   59.9296   65.2572 C   0  0  0  0  0  0  0  0  0  0  0  0
  -51.1764   60.2555   64.0918 C   0  0  0  0  0  0  0  0  0  0  0  0
  -50.7811   59.8696   62.7303 C   0  0  0  0  0  0  0  0  0  0  0  0
  -49.5545   60.4806   62.0904 C   0  0  0  0  0  0  0  0  0  0  0  0
  -49.3439   59.9018   60.6917 C   0  0  0  0  0  0  0  0  0  0  0  0
  -48.6438   58.5455   60.7014 C   0  0  0  0  0  0  0  0  0  0  0  0
  -49.4447   57.4924   59.9308 C   0  0  0  0  0  0  0  0  0  0  0  0
  -48.6108   56.3418   59.3544 C   0  0  0  0  0  0  0  0  0  0  0  0
  -47.2949   56.8331   58.7369 C   0  0  0  0  0  0  0  0  0  0  0  0
  -47.5061   57.5918   57.4241 C   0  0  0  0  0  0  0  0  0  0  0  0
  -47.6532   56.6720   56.2060 C   0  0  0  0  0  0  0  0  0  0  0  0
  -49.6231   58.5869   64.9702 C   0  0  0  0  0  0  0  0  0  0  0  0
  -48.3274   58.4126   65.7422 C   0  0  0  0  0  0  0  0  0  0  0  0
  -47.7771   56.9987   65.5812 C   0  0  0  0  0  0  0  0  0  0  0  0
  -46.3913   56.9010   66.2037 C   0  0  0  0  0  0  0  0  0  0  0  0
  -45.3900   57.7524   65.4391 C   0  0  0  0  0  0  0  0  0  0  0  0
  -44.6725   58.7255   66.3689 C   0  0  0  0  0  0  0  0  0  0  0  0
  -43.6488   59.5217   65.5832 C   0  0  0  0  0  0  0  0  0  0  0  0
  -43.4046   59.2272   64.3852 O   0  0  0  0  0  0  0  0  0  0  0  0
  -43.0346   60.4776   66.1236 O   0  0  0  0  0  0  0  0  0  0  0  0
  -43.2109   60.7033   67.0158 H   0  0  0  0  0  0  0  0  0  0  0  0
 18 19  2  0  0  0
 18 17  1  0  0  0
 18 20  1  0  0  0
 17 16  1  0  0  0
 20 21  1  0  0  0
 16 15  1  0  0  0
 15 14  1  0  0  0
 14 13  1  0  0  0
 13 12  1  0  0  0
 12  1  1  0  0  0
  1  2  1  0  0  0
  2  3  1  0  0  0
  3  4  1  0  0  0
  4  5  1  0  0  0
  5  6  1  0  0  0
  6  7  1  0  0  0
  7  8  1  0  0  0
  8  9  1  0  0  0
  9 10  1  0  0  0
 10 11  1  0  0  0
M  END
> <minimizedAffinity>
-6.89039

> <CNNscore>
0.7648404241

> <CNNaffinity>
6.7325882912

> <CNN_VS>
5.1493558884

> <CNNaffinity_variance>
0.6266655326

$$$$
/media/chris/experiments/cd1a-new-docking/inputs/ligands/4x6d_1_ligand.pdb


 21 20  0  0  0  0  0  0  0  0999 V2000
  -44.3949   59.0110   64.8606 C   0  0  0  0  0  0  0  0  0  0  0  0
  -45.7411   59.0195   65.5414 C   0  0  0  0  0  0  0  0  0  0  0  0
  -46.7113   60.0789   65.2325 C   0  0  0  0  0  0  0  0  0  0  0  0
  -48.0498   59.7321   64.6197 C   0  0  0  0  0  0  0  0  0  0  0  0
  -48.6689   60.9678   63.9675 C   0  0  0  0  0  0  0  0  0  0  0  0
  -49.4813   60.6441   62.7165 C   0  0  0  0  0  0  0  0  0  0  0  0
  -50.7133   59.7977   63.0480 C   0  0  0  0  0  0  0  0  0  0  0  0
  -50.8215   58.4822   62.2673 C   0  0  0  0  0  0  0  0  0  0  0  0
  -49.4725   58.0432   61.6829 C   0  0  0  0  0  0  0  0  0  0  0  0
  -49.5005   57.9260   60.1567 C   0  0  0  0  0  0  0  0  0  0  0  0
  -48.1359   58.1723   59.5018 C   0  0  0  0  0  0  0  0  0  0  0  0
  -43.5853   60.1637   65.4323 C   0  0  0  0  0  0  0  0  0  0  0  0
  -43.0883   59.8632   66.8351 C   0  0  0  0  0  0  0  0  0  0  0  0
  -41.6566   59.3364   66.8104 C   0  0  0  0  0  0  0  0  0  0  0  0
  -40.8843   59.9698   65.6616 C   0  0  0  0  0  0  0  0  0  0  0  0
  -40.0852   58.9233   64.9008 C   0  0  0  0  0  0  0  0  0  0  0  0
  -38.6393   58.8772   65.3840 C   0  0  0  0  0  0  0  0  0  0  0  0
  -38.0345   60.2661   65.3184 C   0  0  0  0  0  0  0  0  0  0  0  0
  -37.8113   60.8052   64.2043 O   0  0  0  0  0  0  0  0  0  0  0  0
  -37.7482   60.8864   66.3750 O   0  0  0  0  0  0  0  0  0  0  0  0
  -37.9115   60.4916   67.2090 H   0  0  0  0  0  0  0  0  0  0  0  0
 18 19  2  0  0  0
 18 17  1  0  0  0
 18 20  1  0  0  0
 17 16  1  0  0  0
 20 21  1  0  0  0
 16 15  1  0  0  0
 15 14  1  0  0  0
 14 13  1  0  0  0
 13 12  1  0  0  0
 12  1  1  0  0  0
  1  2  1  0  0  0
  2  3  1  0  0  0
  3  4  1  0  0  0
  4  5  1  0  0  0
  5  6  1  0  0  0
  6  7  1  0  0  0
  7  8  1  0  0  0
  8  9  1  0  0  0
  9 10  1  0  0  0
 10 11  1  0  0  0
M  END
> <minimizedAffinity>
-6.54466

> <CNNscore>
0.7367287278

> <CNNaffinity>
6.3568534851

> <CNN_VS>
4.6832766533

> <CNNaffinity_variance>
0.5274425745

$$$$
/media/chris/experiments/cd1a-new-docking/inputs/ligands/4x6d_1_ligand.pdb


 21 20  0  0  0  0  0  0  0  0999 V2000
  -47.9402   57.8088   65.5731 C   0  0  0  0  0  0  0  0  0  0  0  0
  -47.1094   58.7831   66.3709 C   0  0  0  0  0  0  0  0  0  0  0  0
  -45.8163   59.2437   65.8467 C   0  0  0  0  0  0  0  0  0  0  0  0
  -44.5941   59.2586   66.7375 C   0  0  0  0  0  0  0  0  0  0  0  0
  -43.3552   59.6422   65.9291 C   0  0  0  0  0  0  0  0  0  0  0  0
  -42.1006   59.7906   66.7856 C   0  0  0  0  0  0  0  0  0  0  0  0
  -40.8965   60.2326   65.9495 C   0  0  0  0  0  0  0  0  0  0  0  0
  -40.8873   59.7135   64.5065 C   0  0  0  0  0  0  0  0  0  0  0  0
  -39.4662   59.4299   64.0023 C   0  0  0  0  0  0  0  0  0  0  0  0
  -38.8352   58.2067   64.6726 C   0  0  0  0  0  0  0  0  0  0  0  0
  -37.3983   57.9333   64.2121 C   0  0  0  0  0  0  0  0  0  0  0  0
  -49.3588   58.3525   65.5204 C   0  0  0  0  0  0  0  0  0  0  0  0
  -49.4720   59.5447   64.5871 C   0  0  0  0  0  0  0  0  0  0  0  0
  -50.9322   59.8960   64.3180 C   0  0  0  0  0  0  0  0  0  0  0  0
  -51.1755   60.0158   62.8200 C   0  0  0  0  0  0  0  0  0  0  0  0
  -50.2203   59.1255   62.0407 C   0  0  0  0  0  0  0  0  0  0  0  0
  -50.8856   57.8073   61.6585 C   0  0  0  0  0  0  0  0  0  0  0  0
  -50.2755   57.2812   60.3739 C   0  0  0  0  0  0  0  0  0  0  0  0
  -50.3310   57.9675   59.3216 O   0  0  0  0  0  0  0  0  0  0  0  0
  -49.7145   56.1552   60.3501 O   0  0  0  0  0  0  0  0  0  0  0  0
  -49.6690   55.6377   61.1300 H   0  0  0  0  0  0  0  0  0  0  0  0
 18 19  2  0  0  0
 18 17  1  0  0  0
 18 20  1  0  0  0
 17 16  1  0  0  0
 20 21  1  0  0  0
 16 15  1  0  0  0
 15 14  1  0  0  0
 14 13  1  0  0  0
 13 12  1  0  0  0
 12  1  1  0  0  0
  1  2  1  0  0  0
  2  3  1  0  0  0
  3  4  1  0  0  0
  4  5  1  0  0  0
  5  6  1  0  0  0
  6  7  1  0  0  0
  7  8  1  0  0  0
  8  9  1  0  0  0
  9 10  1  0  0  0
 10 11  1  0  0  0
M  END
> <minimizedAffinity>
-6.42214

> <CNNscore>
0.6622065902

> <CNNaffinity>
6.3413434029

> <CNN_VS>
4.1992793083

> <CNNaffinity_variance>
0.6091805696

$$$$
/media/chris/experiments/cd1a-new-docking/inputs/ligands/4x6d_1_ligand.pdb


 21 20  0  0  0  0  0  0  0  0999 V2000
  -44.3560   57.8629   65.3650 C   0  0  0  0  0  0  0  0  0  0  0  0
  -44.8525   59.2829   65.4797 C   0  0  0  0  0  0  0  0  0  0  0  0
  -46.2303   59.6108   65.0884 C   0  0  0  0  0  0  0  0  0  0  0  0
  -47.2106   58.5089   64.7535 C   0  0  0  0  0  0  0  0  0  0  0  0
  -48.3008   58.4284   65.8214 C   0  0  0  0  0  0  0  0  0  0  0  0
  -49.7118   58.4066   65.2396 C   0  0  0  0  0  0  0  0  0  0  0  0
  -50.2499   59.8220   65.0129 C   0  0  0  0  0  0  0  0  0  0  0  0
  -51.1777   59.9733   63.8014 C   0  0  0  0  0  0  0  0  0  0  0  0
  -50.3981   60.0653   62.4830 C   0  0  0  0  0  0  0  0  0  0  0  0
  -50.3530   58.7332   61.7299 C   0  0  0  0  0  0  0  0  0  0  0  0
  -48.9296   58.2708   61.3952 C   0  0  0  0  0  0  0  0  0  0  0  0
  -42.8387   57.9132   65.2863 C   0  0  0  0  0  0  0  0  0  0  0  0
  -42.2867   59.2082   65.8551 C   0  0  0  0  0  0  0  0  0  0  0  0
  -41.1182   59.7222   65.0193 C   0  0  0  0  0  0  0  0  0  0  0  0
  -40.1154   58.6032   64.7753 C   0  0  0  0  0  0  0  0  0  0  0  0
  -38.7591   59.1649   64.3788 C   0  0  0  0  0  0  0  0  0  0  0  0
  -38.5723   59.1336   62.8654 C   0  0  0  0  0  0  0  0  0  0  0  0
  -37.8748   60.4009   62.4108 C   0  0  0  0  0  0  0  0  0  0  0  0
  -37.2691   61.1216   63.2446 O   0  0  0  0  0  0  0  0  0  0  0  0
  -37.9003   60.7424   61.2001 O   0  0  0  0  0  0  0  0  0  0  0  0
  -38.3494   60.2107   60.5727 H   0  0  0  0  0  0  0  0  0  0  0  0
 18 19  2  0  0  0
 18 17  1  0  0  0
 18 20  1  0  0  0
 17 16  1  0  0  0
 20 21  1  0  0  0
 16 15  1  0  0  0
 15 14  1  0  0  0
 14 13  1  0  0  0
 13 12  1  0  0  0
 12  1  1  0  0  0
  1  2  1  0  0  0
  2  3  1  0  0  0
  3  4  1  0  0  0
  4  5  1  0  0  0
  5  6  1  0  0  0
  6  7  1  0  0  0
  7  8  1  0  0  0
  8  9  1  0  0  0
  9 10  1  0  0  0
 10 11  1  0  0  0
M  END
> <minimizedAffinity>
-6.26083

> <CNNscore>
0.6267427802

> <CNNaffinity>
6.2954211235

> <CNN_VS>
3.9456098080

> <CNNaffinity_variance>
0.3433057666

$$$$
