/media/chris/experiments/cd1a-new-docking/inputs/ligands/4x6d_1_ligand.pdb


 21 20  0  0  0  0  0  0  0  0999 V2000
  -48.1829   58.4025   65.1381 C   0  0  0  0  0  0  0  0  0  0  0  0
  -49.6893   58.4367   65.2122 C   0  0  0  0  0  0  0  0  0  0  0  0
  -50.3827   59.7124   65.4378 C   0  0  0  0  0  0  0  0  0  0  0  0
  -51.1777   60.3555   64.3234 C   0  0  0  0  0  0  0  0  0  0  0  0
  -51.0619   59.5266   63.0447 C   0  0  0  0  0  0  0  0  0  0  0  0
  -50.0742   60.1094   62.0375 C   0  0  0  0  0  0  0  0  0  0  0  0
  -49.0493   59.0660   61.5848 C   0  0  0  0  0  0  0  0  0  0  0  0
  -49.6504   57.7842   60.9956 C   0  0  0  0  0  0  0  0  0  0  0  0
  -49.1359   57.5020   59.5777 C   0  0  0  0  0  0  0  0  0  0  0  0
  -47.8249   58.2300   59.2698 C   0  0  0  0  0  0  0  0  0  0  0  0
  -47.3009   57.9677   57.8527 C   0  0  0  0  0  0  0  0  0  0  0  0
  -47.6722   59.7690   65.5660 C   0  0  0  0  0  0  0  0  0  0  0  0
  -46.2289   59.9880   65.1489 C   0  0  0  0  0  0  0  0  0  0  0  0
  -45.3089   58.9507   65.7856 C   0  0  0  0  0  0  0  0  0  0  0  0
  -44.3554   59.6242   66.7627 C   0  0  0  0  0  0  0  0  0  0  0  0
  -42.9106   59.2771   66.4398 C   0  0  0  0  0  0  0  0  0  0  0  0
  -41.9531   60.3108   67.0236 C   0  0  0  0  0  0  0  0  0  0  0  0
  -41.3378   61.1267   65.9034 C   0  0  0  0  0  0  0  0  0  0  0  0
  -41.6712   60.9123   64.7099 O   0  0  0  0  0  0  0  0  0  0  0  0
  -40.4880   62.0189   66.1583 O   0  0  0  0  0  0  0  0  0  0  0  0
  -40.2344   62.1847   67.0450 H   0  0  0  0  0  0  0  0  0  0  0  0
 18 19  2  0  0  0
 18 17  1  0  0  0
 18 20  1  0  0  0
 17 16  1  0  0  0
 20 21  1  0  0  0
 16 15  1  0  0  0
 15 14  1  0  0  0
 14 13  1  0  0  0
 13 12  1  0  0  0
 12  1  1  0  0  0
  1  2  1  0  0  0
  2  3  1  0  0  0
  3  4  1  0  0  0
  4  5  1  0  0  0
  5  6  1  0  0  0
  6  7  1  0  0  0
  7  8  1  0  0  0
  8  9  1  0  0  0
  9 10  1  0  0  0
 10 11  1  0  0  0
M  END
> <minimizedAffinity>
-7.01389

> <CNNscore>
0.8342695832

> <CNNaffinity>
6.6314749718

> <CNN_VS>
5.5324378014

> <CNNaffinity_variance>
0.4380686879

$$$$
/media/chris/experiments/cd1a-new-docking/inputs/ligands/4x6d_1_ligand.pdb


 21 20  0  0  0  0  0  0  0  0999 V2000
  -48.5928   58.8485   65.2319 C   0  0  0  0  0  0  0  0  0  0  0  0
  -48.5943   58.9791   63.7290 C   0  0  0  0  0  0  0  0  0  0  0  0
  -49.4569   59.9769   63.0815 C   0  0  0  0  0  0  0  0  0  0  0  0
  -50.7327   59.5487   62.3913 C   0  0  0  0  0  0  0  0  0  0  0  0
  -50.7160   58.0420   62.1363 C   0  0  0  0  0  0  0  0  0  0  0  0
  -50.5960   57.6835   60.6575 C   0  0  0  0  0  0  0  0  0  0  0  0
  -49.1818   57.2151   60.3041 C   0  0  0  0  0  0  0  0  0  0  0  0
  -48.2344   58.3238   59.8301 C   0  0  0  0  0  0  0  0  0  0  0  0
  -47.5615   57.9787   58.4949 C   0  0  0  0  0  0  0  0  0  0  0  0
  -48.3935   57.0132   57.6468 C   0  0  0  0  0  0  0  0  0  0  0  0
  -47.8413   56.8163   56.2298 C   0  0  0  0  0  0  0  0  0  0  0  0
  -47.7299   59.9697   65.7882 C   0  0  0  0  0  0  0  0  0  0  0  0
  -46.2519   59.7137   65.5539 C   0  0  0  0  0  0  0  0  0  0  0  0
  -45.6411   58.9226   66.7066 C   0  0  0  0  0  0  0  0  0  0  0  0
  -45.4253   57.4738   66.2925 C   0  0  0  0  0  0  0  0  0  0  0  0
  -44.3118   57.3623   65.2630 C   0  0  0  0  0  0  0  0  0  0  0  0
  -42.9425   57.5291   65.9137 C   0  0  0  0  0  0  0  0  0  0  0  0
  -42.1798   58.6412   65.2203 C   0  0  0  0  0  0  0  0  0  0  0  0
  -40.9271   58.7008   65.3139 O   0  0  0  0  0  0  0  0  0  0  0  0
  -42.7931   59.5129   64.5517 O   0  0  0  0  0  0  0  0  0  0  0  0
  -43.7263   59.4754   64.4772 H   0  0  0  0  0  0  0  0  0  0  0  0
 18 19  2  0  0  0
 18 17  1  0  0  0
 18 20  1  0  0  0
 17 16  1  0  0  0
 20 21  1  0  0  0
 16 15  1  0  0  0
 15 14  1  0  0  0
 14 13  1  0  0  0
 13 12  1  0  0  0
 12  1  1  0  0  0
  1  2  1  0  0  0
  2  3  1  0  0  0
  3  4  1  0  0  0
  4  5  1  0  0  0
  5  6  1  0  0  0
  6  7  1  0  0  0
  7  8  1  0  0  0
  8  9  1  0  0  0
  9 10  1  0  0  0
 10 11  1  0  0  0
M  END
> <minimizedAffinity>
-6.82418

> <CNNscore>
0.7986805439

> <CNNaffinity>
6.6459169388

> <CNN_VS>
5.3079643250

> <CNNaffinity_variance>
0.5950595140

$$$$
/media/chris/experiments/cd1a-new-docking/inputs/ligands/4x6d_1_ligand.pdb


 21 20  0  0  0  0  0  0  0  0999 V2000
  -45.3214   58.9553   65.7858 C   0  0  0  0  0  0  0  0  0  0  0  0
  -46.2198   60.1092   65.4155 C   0  0  0  0  0  0  0  0  0  0  0  0
  -47.4640   59.8602   64.6745 C   0  0  0  0  0  0  0  0  0  0  0  0
  -48.0192   58.4575   64.5663 C   0  0  0  0  0  0  0  0  0  0  0  0
  -49.5245   58.4628   64.8296 C   0  0  0  0  0  0  0  0  0  0  0  0
  -50.2262   59.7035   64.2837 C   0  0  0  0  0  0  0  0  0  0  0  0
  -50.6266   59.5250   62.8167 C   0  0  0  0  0  0  0  0  0  0  0  0
  -49.7449   60.2754   61.8113 C   0  0  0  0  0  0  0  0  0  0  0  0
  -49.4138   59.4206   60.5807 C   0  0  0  0  0  0  0  0  0  0  0  0
  -48.6371   58.1501   60.9361 C   0  0  0  0  0  0  0  0  0  0  0  0
  -47.8666   57.5556   59.7510 C   0  0  0  0  0  0  0  0  0  0  0  0
  -44.0869   59.0342   64.9021 C   0  0  0  0  0  0  0  0  0  0  0  0
  -42.8594   58.4709   65.5957 C   0  0  0  0  0  0  0  0  0  0  0  0
  -41.6290   59.3298   65.3198 C   0  0  0  0  0  0  0  0  0  0  0  0
  -40.4018   58.4467   65.1422 C   0  0  0  0  0  0  0  0  0  0  0  0
  -39.3174   59.1727   64.3616 C   0  0  0  0  0  0  0  0  0  0  0  0
  -37.9534   58.9959   65.0208 C   0  0  0  0  0  0  0  0  0  0  0  0
  -37.4372   60.3406   65.4945 C   0  0  0  0  0  0  0  0  0  0  0  0
  -36.4053   60.8387   64.9760 O   0  0  0  0  0  0  0  0  0  0  0  0
  -38.0329   60.9645   66.4105 O   0  0  0  0  0  0  0  0  0  0  0  0
  -38.8023   60.6000   66.8018 H   0  0  0  0  0  0  0  0  0  0  0  0
 18 19  2  0  0  0
 18 17  1  0  0  0
 18 20  1  0  0  0
 17 16  1  0  0  0
 20 21  1  0  0  0
 16 15  1  0  0  0
 15 14  1  0  0  0
 14 13  1  0  0  0
 13 12  1  0  0  0
 12  1  1  0  0  0
  1  2  1  0  0  0
  2  3  1  0  0  0
  3  4  1  0  0  0
  4  5  1  0  0  0
  5  6  1  0  0  0
  6  7  1  0  0  0
  7  8  1  0  0  0
  8  9  1  0  0  0
  9 10  1  0  0  0
 10 11  1  0  0  0
M  END
> <minimizedAffinity>
-6.35012

> <CNNscore>
0.7543599606

> <CNNaffinity>
6.4471559525

> <CNN_VS>
4.8634762764

> <CNNaffinity_variance>
0.2791390419

$$$$
/media/chris/experiments/cd1a-new-docking/inputs/ligands/4x6d_1_ligand.pdb


 21 20  0  0  0  0  0  0  0  0999 V2000
  -49.9538   60.0509   61.9722 C   0  0  0  0  0  0  0  0  0  0  0  0
  -50.8706   59.5486   63.0599 C   0  0  0  0  0  0  0  0  0  0  0  0
  -50.7223   60.0510   64.4327 C   0  0  0  0  0  0  0  0  0  0  0  0
  -49.6526   59.4854   65.3401 C   0  0  0  0  0  0  0  0  0  0  0  0
  -48.5157   60.4925   65.5090 C   0  0  0  0  0  0  0  0  0  0  0  0
  -47.1575   59.9438   65.0800 C   0  0  0  0  0  0  0  0  0  0  0  0
  -47.1967   58.4246   64.8938 C   0  0  0  0  0  0  0  0  0  0  0  0
  -46.2507   57.6377   65.8089 C   0  0  0  0  0  0  0  0  0  0  0  0
  -44.9817   57.1827   65.0760 C   0  0  0  0  0  0  0  0  0  0  0  0
  -43.6996   57.6054   65.7979 C   0  0  0  0  0  0  0  0  0  0  0  0
  -43.7941   58.9922   66.4455 C   0  0  0  0  0  0  0  0  0  0  0  0
  -48.9701   58.9371   61.6517 C   0  0  0  0  0  0  0  0  0  0  0  0
  -49.6794   57.6482   61.2768 C   0  0  0  0  0  0  0  0  0  0  0  0
  -49.3282   57.2205   59.8550 C   0  0  0  0  0  0  0  0  0  0  0  0
  -48.3252   58.1914   59.2476 C   0  0  0  0  0  0  0  0  0  0  0  0
  -47.1856   57.4448   58.5724 C   0  0  0  0  0  0  0  0  0  0  0  0
  -47.6006   56.0240   58.2045 C   0  0  0  0  0  0  0  0  0  0  0  0
  -47.7058   55.8969   56.6972 C   0  0  0  0  0  0  0  0  0  0  0  0
  -48.0467   56.8883   56.0026 O   0  0  0  0  0  0  0  0  0  0  0  0
  -47.4578   54.8005   56.1319 O   0  0  0  0  0  0  0  0  0  0  0  0
  -47.2031   54.0573   56.6425 H   0  0  0  0  0  0  0  0  0  0  0  0
 18 19  2  0  0  0
 18 17  1  0  0  0
 18 20  1  0  0  0
 17 16  1  0  0  0
 20 21  1  0  0  0
 16 15  1  0  0  0
 15 14  1  0  0  0
 14 13  1  0  0  0
 13 12  1  0  0  0
 12  1  1  0  0  0
  1  2  1  0  0  0
  2  3  1  0  0  0
  3  4  1  0  0  0
  4  5  1  0  0  0
  5  6  1  0  0  0
  6  7  1  0  0  0
  7  8  1  0  0  0
  8  9  1  0  0  0
  9 10  1  0  0  0
 10 11  1  0  0  0
M  END
> <minimizedAffinity>
-7.03568

> <CNNscore>
0.7291154265

> <CNNaffinity>
6.8225197792

> <CNN_VS>
4.9744043350

> <CNNaffinity_variance>
0.5956766009

$$$$
/media/chris/experiments/cd1a-new-docking/inputs/ligands/4x6d_1_ligand.pdb


 21 20  0  0  0  0  0  0  0  0999 V2000
  -45.3687   58.3458   66.2676 C   0  0  0  0  0  0  0  0  0  0  0  0
  -46.3171   59.4070   66.7680 C   0  0  0  0  0  0  0  0  0  0  0  0
  -47.7169   59.4076   66.3214 C   0  0  0  0  0  0  0  0  0  0  0  0
  -48.3167   58.1705   65.6912 C   0  0  0  0  0  0  0  0  0  0  0  0
  -49.8358   58.3082   65.5975 C   0  0  0  0  0  0  0  0  0  0  0  0
  -50.3089   59.7593   65.5927 C   0  0  0  0  0  0  0  0  0  0  0  0
  -50.8169   60.1821   64.2117 C   0  0  0  0  0  0  0  0  0  0  0  0
  -49.7211   60.4152   63.1646 C   0  0  0  0  0  0  0  0  0  0  0  0
  -49.9804   59.6318   61.8709 C   0  0  0  0  0  0  0  0  0  0  0  0
  -50.8388   58.3847   62.0980 C   0  0  0  0  0  0  0  0  0  0  0  0
  -50.8686   57.4379   60.8921 C   0  0  0  0  0  0  0  0  0  0  0  0
  -44.1575   59.0535   65.6817 C   0  0  0  0  0  0  0  0  0  0  0  0
  -42.8781   58.6771   66.4074 C   0  0  0  0  0  0  0  0  0  0  0  0
  -42.1803   59.9123   66.9686 C   0  0  0  0  0  0  0  0  0  0  0  0
  -40.8789   60.1651   66.2206 C   0  0  0  0  0  0  0  0  0  0  0  0
  -40.4734   58.9463   65.4068 C   0  0  0  0  0  0  0  0  0  0  0  0
  -39.5015   59.3263   64.2944 C   0  0  0  0  0  0  0  0  0  0  0  0
  -38.4486   58.2455   64.1452 C   0  0  0  0  0  0  0  0  0  0  0  0
  -38.2183   57.7404   63.0167 O   0  0  0  0  0  0  0  0  0  0  0  0
  -37.8022   57.8437   65.1471 O   0  0  0  0  0  0  0  0  0  0  0  0
  -37.9679   58.2150   65.9913 H   0  0  0  0  0  0  0  0  0  0  0  0
 18 19  2  0  0  0
 18 17  1  0  0  0
 18 20  1  0  0  0
 17 16  1  0  0  0
 20 21  1  0  0  0
 16 15  1  0  0  0
 15 14  1  0  0  0
 14 13  1  0  0  0
 13 12  1  0  0  0
 12  1  1  0  0  0
  1  2  1  0  0  0
  2  3  1  0  0  0
  3  4  1  0  0  0
  4  5  1  0  0  0
  5  6  1  0  0  0
  6  7  1  0  0  0
  7  8  1  0  0  0
  8  9  1  0  0  0
  9 10  1  0  0  0
 10 11  1  0  0  0
M  END
> <minimizedAffinity>
-6.51957

> <CNNscore>
0.7151235938

> <CNNaffinity>
6.3646020889

> <CNN_VS>
4.5514769554

> <CNNaffinity_variance>
0.2643257380

$$$$
/media/chris/experiments/cd1a-new-docking/inputs/ligands/4x6d_1_ligand.pdb


 21 20  0  0  0  0  0  0  0  0999 V2000
  -46.1787   57.1782   65.8327 C   0  0  0  0  0  0  0  0  0  0  0  0
  -47.6767   57.0120   65.7666 C   0  0  0  0  0  0  0  0  0  0  0  0
  -48.4967   58.0258   65.0892 C   0  0  0  0  0  0  0  0  0  0  0  0
  -48.1469   58.4783   63.6891 C   0  0  0  0  0  0  0  0  0  0  0  0
  -49.2737   59.3353   63.1134 C   0  0  0  0  0  0  0  0  0  0  0  0
  -50.2006   58.5617   62.1796 C   0  0  0  0  0  0  0  0  0  0  0  0
  -49.4132   57.6748   61.2114 C   0  0  0  0  0  0  0  0  0  0  0  0
  -48.5788   58.4348   60.1734 C   0  0  0  0  0  0  0  0  0  0  0  0
  -47.7037   57.4950   59.3334 C   0  0  0  0  0  0  0  0  0  0  0  0
  -47.2578   58.1272   58.0124 C   0  0  0  0  0  0  0  0  0  0  0  0
  -47.3103   57.1582   56.8250 C   0  0  0  0  0  0  0  0  0  0  0  0
  -45.8780   58.1898   66.9269 C   0  0  0  0  0  0  0  0  0  0  0  0
  -45.0336   59.3423   66.4134 C   0  0  0  0  0  0  0  0  0  0  0  0
  -44.6234   59.1192   64.9609 C   0  0  0  0  0  0  0  0  0  0  0  0
  -43.1810   59.5576   64.7498 C   0  0  0  0  0  0  0  0  0  0  0  0
  -43.1130   60.8076   63.8866 C   0  0  0  0  0  0  0  0  0  0  0  0
  -41.7515   60.9361   63.2113 C   0  0  0  0  0  0  0  0  0  0  0  0
  -41.9079   61.6381   61.8764 C   0  0  0  0  0  0  0  0  0  0  0  0
  -41.2393   61.2580   60.8813 O   0  0  0  0  0  0  0  0  0  0  0  0
  -42.7021   62.6065   61.7556 O   0  0  0  0  0  0  0  0  0  0  0  0
  -43.2038   62.8956   62.4922 H   0  0  0  0  0  0  0  0  0  0  0  0
 18 19  2  0  0  0
 18 17  1  0  0  0
 18 20  1  0  0  0
 17 16  1  0  0  0
 20 21  1  0  0  0
 16 15  1  0  0  0
 15 14  1  0  0  0
 14 13  1  0  0  0
 13 12  1  0  0  0
 12  1  1  0  0  0
  1  2  1  0  0  0
  2  3  1  0  0  0
  3  4  1  0  0  0
  4  5  1  0  0  0
  5  6  1  0  0  0
  6  7  1  0  0  0
  7  8  1  0  0  0
  8  9  1  0  0  0
  9 10  1  0  0  0
 10 11  1  0  0  0
M  END
> <minimizedAffinity>
-6.73734

> <CNNscore>
0.7151054144

> <CNNaffinity>
6.6288962364

> <CNN_VS>
4.7403597832

> <CNNaffinity_variance>
0.5412214994

$$$$
/media/chris/experiments/cd1a-new-docking/inputs/ligands/4x6d_1_ligand.pdb


 21 20  0  0  0  0  0  0  0  0999 V2000
  -48.3381   58.5094   64.3627 C   0  0  0  0  0  0  0  0  0  0  0  0
  -47.8842   59.9416   64.4997 C   0  0  0  0  0  0  0  0  0  0  0  0
  -46.6265   60.2479   65.1948 C   0  0  0  0  0  0  0  0  0  0  0  0
  -45.5782   59.1741   65.3829 C   0  0  0  0  0  0  0  0  0  0  0  0
  -44.8863   59.3415   66.7352 C   0  0  0  0  0  0  0  0  0  0  0  0
  -43.4624   59.8790   66.6198 C   0  0  0  0  0  0  0  0  0  0  0  0
  -42.5996   58.9989   65.7114 C   0  0  0  0  0  0  0  0  0  0  0  0
  -41.9119   59.7403   64.5587 C   0  0  0  0  0  0  0  0  0  0  0  0
  -42.8015   60.8409   63.9656 C   0  0  0  0  0  0  0  0  0  0  0  0
  -41.9973   61.9225   63.2396 C   0  0  0  0  0  0  0  0  0  0  0  0
  -42.1506   61.8749   61.7146 C   0  0  0  0  0  0  0  0  0  0  0  0
  -49.5282   58.4946   63.4169 C   0  0  0  0  0  0  0  0  0  0  0  0
  -49.1734   57.8838   62.0730 C   0  0  0  0  0  0  0  0  0  0  0  0
  -49.0987   58.9517   60.9859 C   0  0  0  0  0  0  0  0  0  0  0  0
  -49.1473   58.3036   59.6094 C   0  0  0  0  0  0  0  0  0  0  0  0
  -47.7751   57.7921   59.2001 C   0  0  0  0  0  0  0  0  0  0  0  0
  -47.8167   56.3013   58.8806 C   0  0  0  0  0  0  0  0  0  0  0  0
  -47.5836   56.0903   57.3973 C   0  0  0  0  0  0  0  0  0  0  0  0
  -47.8167   54.9703   56.8749 O   0  0  0  0  0  0  0  0  0  0  0  0
  -47.1521   57.0301   56.6806 O   0  0  0  0  0  0  0  0  0  0  0  0
  -46.9761   57.8675   57.0623 H   0  0  0  0  0  0  0  0  0  0  0  0
 18 19  2  0  0  0
 18 17  1  0  0  0
 18 20  1  0  0  0
 17 16  1  0  0  0
 20 21  1  0  0  0
 16 15  1  0  0  0
 15 14  1  0  0  0
 14 13  1  0  0  0
 13 12  1  0  0  0
 12  1  1  0  0  0
  1  2  1  0  0  0
  2  3  1  0  0  0
  3  4  1  0  0  0
  4  5  1  0  0  0
  5  6  1  0  0  0
  6  7  1  0  0  0
  7  8  1  0  0  0
  8  9  1  0  0  0
  9 10  1  0  0  0
 10 11  1  0  0  0
M  END
> <minimizedAffinity>
-6.79661

> <CNNscore>
0.6858192682

> <CNNaffinity>
6.5691261292

> <CNN_VS>
4.5052332878

> <CNNaffinity_variance>
0.4476521909

$$$$
/media/chris/experiments/cd1a-new-docking/inputs/ligands/4x6d_1_ligand.pdb


 21 20  0  0  0  0  0  0  0  0999 V2000
  -46.9644   59.3110   66.5029 C   0  0  0  0  0  0  0  0  0  0  0  0
  -47.8963   58.9731   65.3657 C   0  0  0  0  0  0  0  0  0  0  0  0
  -49.2775   58.5595   65.6489 C   0  0  0  0  0  0  0  0  0  0  0  0
  -50.4243   59.5156   65.4079 C   0  0  0  0  0  0  0  0  0  0  0  0
  -50.1942   60.3031   64.1185 C   0  0  0  0  0  0  0  0  0  0  0  0
  -51.1777   59.9410   63.0090 C   0  0  0  0  0  0  0  0  0  0  0  0
  -50.7316   58.6906   62.2463 C   0  0  0  0  0  0  0  0  0  0  0  0
  -49.2452   58.6597   61.8710 C   0  0  0  0  0  0  0  0  0  0  0  0
  -49.0178   58.9512   60.3817 C   0  0  0  0  0  0  0  0  0  0  0  0
  -48.4656   57.7427   59.6214 C   0  0  0  0  0  0  0  0  0  0  0  0
  -47.4316   58.1162   58.5523 C   0  0  0  0  0  0  0  0  0  0  0  0
  -46.1503   58.0654   66.8135 C   0  0  0  0  0  0  0  0  0  0  0  0
  -45.6861   57.3647   65.5492 C   0  0  0  0  0  0  0  0  0  0  0  0
  -44.1868   57.0859   65.5936 C   0  0  0  0  0  0  0  0  0  0  0  0
  -43.4428   58.0736   64.7058 C   0  0  0  0  0  0  0  0  0  0  0  0
  -43.1580   59.3679   65.4515 C   0  0  0  0  0  0  0  0  0  0  0  0
  -43.6207   60.5788   64.6477 C   0  0  0  0  0  0  0  0  0  0  0  0
  -42.4627   61.1253   63.8357 C   0  0  0  0  0  0  0  0  0  0  0  0
  -41.3669   61.3855   64.3952 O   0  0  0  0  0  0  0  0  0  0  0  0
  -42.5904   61.3264   62.6002 O   0  0  0  0  0  0  0  0  0  0  0  0
  -43.4037   61.1350   62.1760 H   0  0  0  0  0  0  0  0  0  0  0  0
 18 19  2  0  0  0
 18 17  1  0  0  0
 18 20  1  0  0  0
 17 16  1  0  0  0
 20 21  1  0  0  0
 16 15  1  0  0  0
 15 14  1  0  0  0
 14 13  1  0  0  0
 13 12  1  0  0  0
 12  1  1  0  0  0
  1  2  1  0  0  0
  2  3  1  0  0  0
  3  4  1  0  0  0
  4  5  1  0  0  0
  5  6  1  0  0  0
  6  7  1  0  0  0
  7  8  1  0  0  0
  8  9  1  0  0  0
  9 10  1  0  0  0
 10 11  1  0  0  0
M  END
> <minimizedAffinity>
-6.44807

> <CNNscore>
0.6796723008

> <CNNaffinity>
6.4966268539

> <CNN_VS>
4.4155774117

> <CNNaffinity_variance>
0.3095711470

$$$$
/media/chris/experiments/cd1a-new-docking/inputs/ligands/4x6d_1_ligand.pdb


 21 20  0  0  0  0  0  0  0  0999 V2000
  -50.3312   60.1137   64.6408 C   0  0  0  0  0  0  0  0  0  0  0  0
  -50.0505   58.7544   65.2319 C   0  0  0  0  0  0  0  0  0  0  0  0
  -48.6634   58.3293   65.4646 C   0  0  0  0  0  0  0  0  0  0  0  0
  -47.5259   59.0038   64.7307 C   0  0  0  0  0  0  0  0  0  0  0  0
  -46.3387   59.2103   65.6707 C   0  0  0  0  0  0  0  0  0  0  0  0
  -45.3905   60.3134   65.2085 C   0  0  0  0  0  0  0  0  0  0  0  0
  -43.9249   59.9118   65.3956 C   0  0  0  0  0  0  0  0  0  0  0  0
  -43.4677   59.7999   66.8550 C   0  0  0  0  0  0  0  0  0  0  0  0
  -42.0727   59.1728   66.9782 C   0  0  0  0  0  0  0  0  0  0  0  0
  -41.0612   59.7879   66.0076 C   0  0  0  0  0  0  0  0  0  0  0  0
  -40.4352   58.7656   65.0513 C   0  0  0  0  0  0  0  0  0  0  0  0
  -50.9823   59.8976   63.2842 C   0  0  0  0  0  0  0  0  0  0  0  0
  -49.9882   60.0618   62.1485 C   0  0  0  0  0  0  0  0  0  0  0  0
  -49.8345   58.7647   61.3601 C   0  0  0  0  0  0  0  0  0  0  0  0
  -48.7999   58.9403   60.2573 C   0  0  0  0  0  0  0  0  0  0  0  0
  -48.7851   57.7365   59.3284 C   0  0  0  0  0  0  0  0  0  0  0  0
  -47.6045   57.8001   58.3648 C   0  0  0  0  0  0  0  0  0  0  0  0
  -47.5975   56.5660   57.4838 C   0  0  0  0  0  0  0  0  0  0  0  0
  -47.5641   56.6843   56.2322 O   0  0  0  0  0  0  0  0  0  0  0  0
  -47.6297   55.4175   57.9967 O   0  0  0  0  0  0  0  0  0  0  0  0
  -47.6547   55.3210   58.9284 H   0  0  0  0  0  0  0  0  0  0  0  0
 18 19  2  0  0  0
 18 17  1  0  0  0
 18 20  1  0  0  0
 17 16  1  0  0  0
 20 21  1  0  0  0
 16 15  1  0  0  0
 15 14  1  0  0  0
 14 13  1  0  0  0
 13 12  1  0  0  0
 12  1  1  0  0  0
  1  2  1  0  0  0
  2  3  1  0  0  0
  3  4  1  0  0  0
  4  5  1  0  0  0
  5  6  1  0  0  0
  6  7  1  0  0  0
  7  8  1  0  0  0
  8  9  1  0  0  0
  9 10  1  0  0  0
 10 11  1  0  0  0
M  END
> <minimizedAffinity>
-6.94278

> <CNNscore>
0.6774743199

> <CNNaffinity>
6.5034179688

> <CNN_VS>
4.4058985710

> <CNNaffinity_variance>
0.5886573792

$$$$
