/media/chris/experiments/cd1a-new-docking/inputs/ligands/4x6d_1_ligand.pdb


 21 20  0  0  0  0  0  0  0  0999 V2000
  -46.9534   57.0336   65.8232 C   0  0  0  0  0  0  0  0  0  0  0  0
  -47.7760   58.1775   65.2841 C   0  0  0  0  0  0  0  0  0  0  0  0
  -49.2430   58.1123   65.3349 C   0  0  0  0  0  0  0  0  0  0  0  0
  -50.0732   58.7668   64.2533 C   0  0  0  0  0  0  0  0  0  0  0  0
  -49.6507   58.2519   62.8779 C   0  0  0  0  0  0  0  0  0  0  0  0
  -50.8137   58.1337   61.8966 C   0  0  0  0  0  0  0  0  0  0  0  0
  -50.4689   57.2144   60.7220 C   0  0  0  0  0  0  0  0  0  0  0  0
  -49.7021   57.8889   59.5781 C   0  0  0  0  0  0  0  0  0  0  0  0
  -48.2190   57.4950   59.5638 C   0  0  0  0  0  0  0  0  0  0  0  0
  -47.4503   58.1323   58.4034 C   0  0  0  0  0  0  0  0  0  0  0  0
  -47.5137   57.3135   57.1082 C   0  0  0  0  0  0  0  0  0  0  0  0
  -45.6933   57.6241   66.4351 C   0  0  0  0  0  0  0  0  0  0  0  0
  -44.4491   57.2208   65.6641 C   0  0  0  0  0  0  0  0  0  0  0  0
  -44.1981   58.1648   64.4920 C   0  0  0  0  0  0  0  0  0  0  0  0
  -43.9390   59.5759   65.0010 C   0  0  0  0  0  0  0  0  0  0  0  0
  -42.5860   60.0847   64.5292 C   0  0  0  0  0  0  0  0  0  0  0  0
  -41.5653   60.0641   65.6625 C   0  0  0  0  0  0  0  0  0  0  0  0
  -40.6827   61.2941   65.5771 C   0  0  0  0  0  0  0  0  0  0  0  0
  -39.5633   61.3086   66.1502 O   0  0  0  0  0  0  0  0  0  0  0  0
  -41.0644   62.3084   64.9378 O   0  0  0  0  0  0  0  0  0  0  0  0
  -41.8970   62.3054   64.5081 H   0  0  0  0  0  0  0  0  0  0  0  0
 18 19  2  0  0  0
 18 17  1  0  0  0
 18 20  1  0  0  0
 17 16  1  0  0  0
 20 21  1  0  0  0
 16 15  1  0  0  0
 15 14  1  0  0  0
 14 13  1  0  0  0
 13 12  1  0  0  0
 12  1  1  0  0  0
  1  2  1  0  0  0
  2  3  1  0  0  0
  3  4  1  0  0  0
  4  5  1  0  0  0
  5  6  1  0  0  0
  6  7  1  0  0  0
  7  8  1  0  0  0
  8  9  1  0  0  0
  9 10  1  0  0  0
 10 11  1  0  0  0
M  END
> <minimizedAffinity>
-7.10064

> <CNNscore>
0.9575783014

> <CNNaffinity>
7.1524872780

> <CNN_VS>
6.8490667343

> <CNNaffinity_variance>
0.7790538073

$$$$
/media/chris/experiments/cd1a-new-docking/inputs/ligands/4x6d_1_ligand.pdb


 21 20  0  0  0  0  0  0  0  0999 V2000
  -47.3108   59.9135   64.7284 C   0  0  0  0  0  0  0  0  0  0  0  0
  -47.8467   58.5833   64.2600 C   0  0  0  0  0  0  0  0  0  0  0  0
  -49.2922   58.3222   64.2969 C   0  0  0  0  0  0  0  0  0  0  0  0
  -50.2767   59.4571   64.1234 C   0  0  0  0  0  0  0  0  0  0  0  0
  -50.7758   59.5081   62.6798 C   0  0  0  0  0  0  0  0  0  0  0  0
  -49.9063   60.3750   61.7731 C   0  0  0  0  0  0  0  0  0  0  0  0
  -49.1438   59.5309   60.7485 C   0  0  0  0  0  0  0  0  0  0  0  0
  -49.7744   58.1681   60.4377 C   0  0  0  0  0  0  0  0  0  0  0  0
  -49.2032   57.5442   59.1574 C   0  0  0  0  0  0  0  0  0  0  0  0
  -47.6725   57.5499   59.1302 C   0  0  0  0  0  0  0  0  0  0  0  0
  -47.0892   57.8864   57.7524 C   0  0  0  0  0  0  0  0  0  0  0  0
  -46.1617   59.6336   65.6835 C   0  0  0  0  0  0  0  0  0  0  0  0
  -45.2335   58.5572   65.1497 C   0  0  0  0  0  0  0  0  0  0  0  0
  -43.7840   59.0337   65.1447 C   0  0  0  0  0  0  0  0  0  0  0  0
  -43.0905   58.6172   66.4343 C   0  0  0  0  0  0  0  0  0  0  0  0
  -42.0351   59.6349   66.8378 C   0  0  0  0  0  0  0  0  0  0  0  0
  -40.9407   59.7405   65.7806 C   0  0  0  0  0  0  0  0  0  0  0  0
  -40.1942   61.0497   65.9476 C   0  0  0  0  0  0  0  0  0  0  0  0
  -38.9435   61.0506   66.0793 O   0  0  0  0  0  0  0  0  0  0  0  0
  -40.8191   62.1417   65.9603 O   0  0  0  0  0  0  0  0  0  0  0  0
  -41.7510   62.1493   65.8628 H   0  0  0  0  0  0  0  0  0  0  0  0
 18 19  2  0  0  0
 18 17  1  0  0  0
 18 20  1  0  0  0
 17 16  1  0  0  0
 20 21  1  0  0  0
 16 15  1  0  0  0
 15 14  1  0  0  0
 14 13  1  0  0  0
 13 12  1  0  0  0
 12  1  1  0  0  0
  1  2  1  0  0  0
  2  3  1  0  0  0
  3  4  1  0  0  0
  4  5  1  0  0  0
  5  6  1  0  0  0
  6  7  1  0  0  0
  7  8  1  0  0  0
  8  9  1  0  0  0
  9 10  1  0  0  0
 10 11  1  0  0  0
M  END
> <minimizedAffinity>
-6.98545

> <CNNscore>
0.9277630448

> <CNNaffinity>
6.9544129372

> <CNN_VS>
6.4520473480

> <CNNaffinity_variance>
0.7528575659

$$$$
/media/chris/experiments/cd1a-new-docking/inputs/ligands/4x6d_1_ligand.pdb


 21 20  0  0  0  0  0  0  0  0999 V2000
  -47.4305   59.3666   65.0467 C   0  0  0  0  0  0  0  0  0  0  0  0
  -48.6849   59.6697   65.8280 C   0  0  0  0  0  0  0  0  0  0  0  0
  -49.9910   59.2360   65.3133 C   0  0  0  0  0  0  0  0  0  0  0  0
  -50.7920   60.1427   64.4057 C   0  0  0  0  0  0  0  0  0  0  0  0
  -50.5164   59.8026   62.9415 C   0  0  0  0  0  0  0  0  0  0  0  0
  -50.6271   58.3106   62.6395 C   0  0  0  0  0  0  0  0  0  0  0  0
  -50.4103   58.0190   61.1523 C   0  0  0  0  0  0  0  0  0  0  0  0
  -49.2894   58.8308   60.4922 C   0  0  0  0  0  0  0  0  0  0  0  0
  -48.1461   57.9384   59.9908 C   0  0  0  0  0  0  0  0  0  0  0  0
  -48.2291   57.6620   58.4874 C   0  0  0  0  0  0  0  0  0  0  0  0
  -46.9869   58.1214   57.7143 C   0  0  0  0  0  0  0  0  0  0  0  0
  -46.5389   60.5959   65.1171 C   0  0  0  0  0  0  0  0  0  0  0  0
  -45.0709   60.2231   65.2222 C   0  0  0  0  0  0  0  0  0  0  0  0
  -44.8602   59.0962   66.2291 C   0  0  0  0  0  0  0  0  0  0  0  0
  -43.3767   58.9302   66.5278 C   0  0  0  0  0  0  0  0  0  0  0  0
  -42.6320   60.2412   66.3310 C   0  0  0  0  0  0  0  0  0  0  0  0
  -41.3499   60.0306   65.5320 C   0  0  0  0  0  0  0  0  0  0  0  0
  -40.3372   61.0969   65.9013 C   0  0  0  0  0  0  0  0  0  0  0  0
  -40.7214   62.2590   66.1902 O   0  0  0  0  0  0  0  0  0  0  0  0
  -39.1079   60.8293   65.9169 O   0  0  0  0  0  0  0  0  0  0  0  0
  -38.8137   59.9658   65.7028 H   0  0  0  0  0  0  0  0  0  0  0  0
 18 19  2  0  0  0
 18 17  1  0  0  0
 18 20  1  0  0  0
 17 16  1  0  0  0
 20 21  1  0  0  0
 16 15  1  0  0  0
 15 14  1  0  0  0
 14 13  1  0  0  0
 13 12  1  0  0  0
 12  1  1  0  0  0
  1  2  1  0  0  0
  2  3  1  0  0  0
  3  4  1  0  0  0
  4  5  1  0  0  0
  5  6  1  0  0  0
  6  7  1  0  0  0
  7  8  1  0  0  0
  8  9  1  0  0  0
  9 10  1  0  0  0
 10 11  1  0  0  0
M  END
> <minimizedAffinity>
-7.06483

> <CNNscore>
0.9250603914

> <CNNaffinity>
6.9175696373

> <CNN_VS>
6.3991694450

> <CNNaffinity_variance>
0.7098156810

$$$$
/media/chris/experiments/cd1a-new-docking/inputs/ligands/4x6d_1_ligand.pdb


 21 20  0  0  0  0  0  0  0  0999 V2000
  -47.3368   58.4088   64.1438 C   0  0  0  0  0  0  0  0  0  0  0  0
  -48.4769   59.3886   64.0171 C   0  0  0  0  0  0  0  0  0  0  0  0
  -49.8382   58.8989   63.7602 C   0  0  0  0  0  0  0  0  0  0  0  0
  -50.4758   59.0958   62.4030 C   0  0  0  0  0  0  0  0  0  0  0  0
  -50.5059   57.7743   61.6360 C   0  0  0  0  0  0  0  0  0  0  0  0
  -50.1384   57.9257   60.1624 C   0  0  0  0  0  0  0  0  0  0  0  0
  -48.7200   58.4751   59.9888 C   0  0  0  0  0  0  0  0  0  0  0  0
  -47.6934   57.4599   59.4721 C   0  0  0  0  0  0  0  0  0  0  0  0
  -47.0828   57.8857   58.1302 C   0  0  0  0  0  0  0  0  0  0  0  0
  -47.7558   57.2078   56.9339 C   0  0  0  0  0  0  0  0  0  0  0  0
  -47.6873   55.6766   56.9837 C   0  0  0  0  0  0  0  0  0  0  0  0
  -46.5292   58.8020   65.3702 C   0  0  0  0  0  0  0  0  0  0  0  0
  -45.8870   60.1683   65.2089 C   0  0  0  0  0  0  0  0  0  0  0  0
  -44.3678   60.0784   65.3185 C   0  0  0  0  0  0  0  0  0  0  0  0
  -43.9654   59.7073   66.7390 C   0  0  0  0  0  0  0  0  0  0  0  0
  -42.5705   60.2198   67.0609 C   0  0  0  0  0  0  0  0  0  0  0  0
  -41.6379   60.0644   65.8640 C   0  0  0  0  0  0  0  0  0  0  0  0
  -40.5455   61.1139   65.9283 C   0  0  0  0  0  0  0  0  0  0  0  0
  -40.8450   62.3344   65.9773 O   0  0  0  0  0  0  0  0  0  0  0  0
  -39.3343   60.7731   65.9284 O   0  0  0  0  0  0  0  0  0  0  0  0
  -39.1030   59.8658   65.8921 H   0  0  0  0  0  0  0  0  0  0  0  0
 18 19  2  0  0  0
 18 17  1  0  0  0
 18 20  1  0  0  0
 17 16  1  0  0  0
 20 21  1  0  0  0
 16 15  1  0  0  0
 15 14  1  0  0  0
 14 13  1  0  0  0
 13 12  1  0  0  0
 12  1  1  0  0  0
  1  2  1  0  0  0
  2  3  1  0  0  0
  3  4  1  0  0  0
  4  5  1  0  0  0
  5  6  1  0  0  0
  6  7  1  0  0  0
  7  8  1  0  0  0
  8  9  1  0  0  0
  9 10  1  0  0  0
 10 11  1  0  0  0
M  END
> <minimizedAffinity>
-7.12848

> <CNNscore>
0.9221200347

> <CNNaffinity>
6.9824876785

> <CNN_VS>
6.4386916161

> <CNNaffinity_variance>
0.6528813839

$$$$
/media/chris/experiments/cd1a-new-docking/inputs/ligands/4x6d_1_ligand.pdb


 21 20  0  0  0  0  0  0  0  0999 V2000
  -46.7840   57.2577   65.6896 C   0  0  0  0  0  0  0  0  0  0  0  0
  -47.4399   58.2511   64.7629 C   0  0  0  0  0  0  0  0  0  0  0  0
  -47.6374   59.6401   65.1996 C   0  0  0  0  0  0  0  0  0  0  0  0
  -48.9035   60.0387   65.9246 C   0  0  0  0  0  0  0  0  0  0  0  0
  -50.1094   59.3257   65.3138 C   0  0  0  0  0  0  0  0  0  0  0  0
  -51.0316   60.2616   64.5372 C   0  0  0  0  0  0  0  0  0  0  0  0
  -51.1757   59.8266   63.0764 C   0  0  0  0  0  0  0  0  0  0  0  0
  -49.9666   60.1409   62.1871 C   0  0  0  0  0  0  0  0  0  0  0  0
  -49.3476   58.8738   61.5823 C   0  0  0  0  0  0  0  0  0  0  0  0
  -50.3777   57.9994   60.8626 C   0  0  0  0  0  0  0  0  0  0  0  0
  -49.9210   57.5390   59.4729 C   0  0  0  0  0  0  0  0  0  0  0  0
  -45.3958   57.7839   66.0167 C   0  0  0  0  0  0  0  0  0  0  0  0
  -44.3345   57.1724   65.1195 C   0  0  0  0  0  0  0  0  0  0  0  0
  -42.9324   57.5310   65.6027 C   0  0  0  0  0  0  0  0  0  0  0  0
  -42.7512   59.0425   65.6119 C   0  0  0  0  0  0  0  0  0  0  0  0
  -41.5518   59.4518   64.7717 C   0  0  0  0  0  0  0  0  0  0  0  0
  -40.2717   59.4452   65.6011 C   0  0  0  0  0  0  0  0  0  0  0  0
  -39.8287   60.8706   65.8676 C   0  0  0  0  0  0  0  0  0  0  0  0
  -40.6554   61.8146   65.7836 O   0  0  0  0  0  0  0  0  0  0  0  0
  -38.6329   61.1198   66.1694 O   0  0  0  0  0  0  0  0  0  0  0  0
  -38.0109   60.4220   66.2339 H   0  0  0  0  0  0  0  0  0  0  0  0
 18 19  2  0  0  0
 18 17  1  0  0  0
 18 20  1  0  0  0
 17 16  1  0  0  0
 20 21  1  0  0  0
 16 15  1  0  0  0
 15 14  1  0  0  0
 14 13  1  0  0  0
 13 12  1  0  0  0
 12  1  1  0  0  0
  1  2  1  0  0  0
  2  3  1  0  0  0
  3  4  1  0  0  0
  4  5  1  0  0  0
  5  6  1  0  0  0
  6  7  1  0  0  0
  7  8  1  0  0  0
  8  9  1  0  0  0
  9 10  1  0  0  0
 10 11  1  0  0  0
M  END
> <minimizedAffinity>
-6.70937

> <CNNscore>
0.8390768170

> <CNNaffinity>
6.5854616165

> <CNN_VS>
5.5257081985

> <CNNaffinity_variance>
0.4625883102

$$$$
/media/chris/experiments/cd1a-new-docking/inputs/ligands/4x6d_1_ligand.pdb


 21 20  0  0  0  0  0  0  0  0999 V2000
  -48.4284   60.3112   65.8431 C   0  0  0  0  0  0  0  0  0  0  0  0
  -49.0494   60.0396   64.4954 C   0  0  0  0  0  0  0  0  0  0  0  0
  -50.5035   60.1596   64.3215 C   0  0  0  0  0  0  0  0  0  0  0  0
  -51.1745   59.5850   63.0939 C   0  0  0  0  0  0  0  0  0  0  0  0
  -50.2837   58.5211   62.4534 C   0  0  0  0  0  0  0  0  0  0  0  0
  -49.7264   58.9411   61.0960 C   0  0  0  0  0  0  0  0  0  0  0  0
  -49.6507   57.7580   60.1273 C   0  0  0  0  0  0  0  0  0  0  0  0
  -48.2343   57.3861   59.6722 C   0  0  0  0  0  0  0  0  0  0  0  0
  -47.6777   58.3785   58.6426 C   0  0  0  0  0  0  0  0  0  0  0  0
  -46.8827   57.6906   57.5298 C   0  0  0  0  0  0  0  0  0  0  0  0
  -47.7670   56.9611   56.5111 C   0  0  0  0  0  0  0  0  0  0  0  0
  -46.9223   60.1732   65.6896 C   0  0  0  0  0  0  0  0  0  0  0  0
  -46.2951   59.4738   66.8823 C   0  0  0  0  0  0  0  0  0  0  0  0
  -46.6264   57.9845   66.8835 C   0  0  0  0  0  0  0  0  0  0  0  0
  -46.1935   57.3497   65.5693 C   0  0  0  0  0  0  0  0  0  0  0  0
  -44.6836   57.1773   65.5196 C   0  0  0  0  0  0  0  0  0  0  0  0
  -44.0680   58.0363   64.4197 C   0  0  0  0  0  0  0  0  0  0  0  0
  -43.0007   58.9359   65.0117 C   0  0  0  0  0  0  0  0  0  0  0  0
  -43.2270   60.1626   65.1720 O   0  0  0  0  0  0  0  0  0  0  0  0
  -41.8819   58.4643   65.3418 O   0  0  0  0  0  0  0  0  0  0  0  0
  -41.7056   57.5514   65.2255 H   0  0  0  0  0  0  0  0  0  0  0  0
 18 19  2  0  0  0
 18 17  1  0  0  0
 18 20  1  0  0  0
 17 16  1  0  0  0
 20 21  1  0  0  0
 16 15  1  0  0  0
 15 14  1  0  0  0
 14 13  1  0  0  0
 13 12  1  0  0  0
 12  1  1  0  0  0
  1  2  1  0  0  0
  2  3  1  0  0  0
  3  4  1  0  0  0
  4  5  1  0  0  0
  5  6  1  0  0  0
  6  7  1  0  0  0
  7  8  1  0  0  0
  8  9  1  0  0  0
  9 10  1  0  0  0
 10 11  1  0  0  0
M  END
> <minimizedAffinity>
-6.80178

> <CNNscore>
0.8239839673

> <CNNaffinity>
6.6971869469

> <CNN_VS>
5.5183744431

> <CNNaffinity_variance>
0.5914484859

$$$$
/media/chris/experiments/cd1a-new-docking/inputs/ligands/4x6d_1_ligand.pdb


 21 20  0  0  0  0  0  0  0  0999 V2000
  -49.1153   59.2050   63.6113 C   0  0  0  0  0  0  0  0  0  0  0  0
  -49.0275   58.2669   64.7895 C   0  0  0  0  0  0  0  0  0  0  0  0
  -47.8934   58.3623   65.7187 C   0  0  0  0  0  0  0  0  0  0  0  0
  -46.6021   59.0169   65.2810 C   0  0  0  0  0  0  0  0  0  0  0  0
  -45.6758   57.9835   64.6411 C   0  0  0  0  0  0  0  0  0  0  0  0
  -44.8950   57.1612   65.6628 C   0  0  0  0  0  0  0  0  0  0  0  0
  -43.7236   57.9545   66.2479 C   0  0  0  0  0  0  0  0  0  0  0  0
  -42.5896   58.2540   65.2601 C   0  0  0  0  0  0  0  0  0  0  0  0
  -41.3927   58.9315   65.9406 C   0  0  0  0  0  0  0  0  0  0  0  0
  -40.3289   59.3930   64.9411 C   0  0  0  0  0  0  0  0  0  0  0  0
  -39.2625   58.3294   64.6523 C   0  0  0  0  0  0  0  0  0  0  0  0
  -49.0781   58.3591   62.3486 C   0  0  0  0  0  0  0  0  0  0  0  0
  -50.4710   57.9587   61.8964 C   0  0  0  0  0  0  0  0  0  0  0  0
  -50.4319   57.2795   60.5307 C   0  0  0  0  0  0  0  0  0  0  0  0
  -48.9922   57.1351   60.0576 C   0  0  0  0  0  0  0  0  0  0  0  0
  -48.9087   57.2014   58.5408 C   0  0  0  0  0  0  0  0  0  0  0  0
  -47.5412   56.7425   58.0449 C   0  0  0  0  0  0  0  0  0  0  0  0
  -47.6493   56.2786   56.6054 C   0  0  0  0  0  0  0  0  0  0  0  0
  -48.1138   57.0497   55.7272 O   0  0  0  0  0  0  0  0  0  0  0  0
  -47.2805   55.1205   56.2803 O   0  0  0  0  0  0  0  0  0  0  0  0
  -46.9334   54.5400   56.9289 H   0  0  0  0  0  0  0  0  0  0  0  0
 18 19  2  0  0  0
 18 17  1  0  0  0
 18 20  1  0  0  0
 17 16  1  0  0  0
 20 21  1  0  0  0
 16 15  1  0  0  0
 15 14  1  0  0  0
 14 13  1  0  0  0
 13 12  1  0  0  0
 12  1  1  0  0  0
  1  2  1  0  0  0
  2  3  1  0  0  0
  3  4  1  0  0  0
  4  5  1  0  0  0
  5  6  1  0  0  0
  6  7  1  0  0  0
  7  8  1  0  0  0
  8  9  1  0  0  0
  9 10  1  0  0  0
 10 11  1  0  0  0
M  END
> <minimizedAffinity>
-6.87019

> <CNNscore>
0.7788989544

> <CNNaffinity>
6.7066559792

> <CNN_VS>
5.2238073349

> <CNNaffinity_variance>
0.5165976882

$$$$
/media/chris/experiments/cd1a-new-docking/inputs/ligands/4x6d_1_ligand.pdb


 21 20  0  0  0  0  0  0  0  0999 V2000
  -49.8505   58.4299   65.4851 C   0  0  0  0  0  0  0  0  0  0  0  0
  -50.1459   59.8820   65.2023 C   0  0  0  0  0  0  0  0  0  0  0  0
  -51.1435   60.2418   64.1853 C   0  0  0  0  0  0  0  0  0  0  0  0
  -50.9461   59.8284   62.7439 C   0  0  0  0  0  0  0  0  0  0  0  0
  -49.6530   60.4292   62.1939 C   0  0  0  0  0  0  0  0  0  0  0  0
  -49.3349   59.9730   60.7724 C   0  0  0  0  0  0  0  0  0  0  0  0
  -48.8467   58.5223   60.7420 C   0  0  0  0  0  0  0  0  0  0  0  0
  -48.0961   58.1206   59.4666 C   0  0  0  0  0  0  0  0  0  0  0  0
  -48.2621   56.6300   59.1421 C   0  0  0  0  0  0  0  0  0  0  0  0
  -47.4370   56.1948   57.9282 C   0  0  0  0  0  0  0  0  0  0  0  0
  -47.9349   56.7935   56.6071 C   0  0  0  0  0  0  0  0  0  0  0  0
  -48.3393   58.2687   65.5220 C   0  0  0  0  0  0  0  0  0  0  0  0
  -47.6265   59.5170   65.0336 C   0  0  0  0  0  0  0  0  0  0  0  0
  -46.4674   59.8848   65.9552 C   0  0  0  0  0  0  0  0  0  0  0  0
  -45.4599   58.7449   66.0115 C   0  0  0  0  0  0  0  0  0  0  0  0
  -44.0520   59.2490   65.7364 C   0  0  0  0  0  0  0  0  0  0  0  0
  -44.0721   60.4519   64.7988 C   0  0  0  0  0  0  0  0  0  0  0  0
  -42.7464   60.5533   64.0699 C   0  0  0  0  0  0  0  0  0  0  0  0
  -41.7701   59.8496   64.4349 O   0  0  0  0  0  0  0  0  0  0  0  0
  -42.6120   61.3435   63.1000 O   0  0  0  0  0  0  0  0  0  0  0  0
  -43.3346   61.8712   62.8220 H   0  0  0  0  0  0  0  0  0  0  0  0
 18 19  2  0  0  0
 18 17  1  0  0  0
 18 20  1  0  0  0
 17 16  1  0  0  0
 20 21  1  0  0  0
 16 15  1  0  0  0
 15 14  1  0  0  0
 14 13  1  0  0  0
 13 12  1  0  0  0
 12  1  1  0  0  0
  1  2  1  0  0  0
  2  3  1  0  0  0
  3  4  1  0  0  0
  4  5  1  0  0  0
  5  6  1  0  0  0
  6  7  1  0  0  0
  7  8  1  0  0  0
  8  9  1  0  0  0
  9 10  1  0  0  0
 10 11  1  0  0  0
M  END
> <minimizedAffinity>
-6.85894

> <CNNscore>
0.7532402277

> <CNNaffinity>
6.6168413162

> <CNN_VS>
4.9840712547

> <CNNaffinity_variance>
0.2534117997

$$$$
/media/chris/experiments/cd1a-new-docking/inputs/ligands/4x6d_1_ligand.pdb


 21 20  0  0  0  0  0  0  0  0999 V2000
  -49.3283   59.6731   63.1435 C   0  0  0  0  0  0  0  0  0  0  0  0
  -48.9072   58.3650   63.7659 C   0  0  0  0  0  0  0  0  0  0  0  0
  -48.4318   58.3348   65.1559 C   0  0  0  0  0  0  0  0  0  0  0  0
  -47.2670   57.4517   65.5443 C   0  0  0  0  0  0  0  0  0  0  0  0
  -46.2386   58.2532   66.3414 C   0  0  0  0  0  0  0  0  0  0  0  0
  -46.2522   59.7437   66.0134 C   0  0  0  0  0  0  0  0  0  0  0  0
  -45.1536   60.1106   65.0122 C   0  0  0  0  0  0  0  0  0  0  0  0
  -43.7239   59.8353   65.4934 C   0  0  0  0  0  0  0  0  0  0  0  0
  -42.6846   60.0811   64.3915 C   0  0  0  0  0  0  0  0  0  0  0  0
  -42.9512   61.3673   63.6051 C   0  0  0  0  0  0  0  0  0  0  0  0
  -42.1137   61.4834   62.3257 C   0  0  0  0  0  0  0  0  0  0  0  0
  -49.9423   59.3590   61.7888 C   0  0  0  0  0  0  0  0  0  0  0  0
  -50.6458   58.0136   61.7862 C   0  0  0  0  0  0  0  0  0  0  0  0
  -50.2837   57.2059   60.5434 C   0  0  0  0  0  0  0  0  0  0  0  0
  -49.3508   58.0099   59.6486 C   0  0  0  0  0  0  0  0  0  0  0  0
  -48.1012   57.2126   59.3092 C   0  0  0  0  0  0  0  0  0  0  0  0
  -47.5891   57.5603   57.9151 C   0  0  0  0  0  0  0  0  0  0  0  0
  -47.9381   56.4441   56.9500 C   0  0  0  0  0  0  0  0  0  0  0  0
  -47.8157   55.2433   57.3031 O   0  0  0  0  0  0  0  0  0  0  0  0
  -48.3473   56.7100   55.7903 O   0  0  0  0  0  0  0  0  0  0  0  0
  -48.4412   57.6021   55.5197 H   0  0  0  0  0  0  0  0  0  0  0  0
 18 19  2  0  0  0
 18 17  1  0  0  0
 18 20  1  0  0  0
 17 16  1  0  0  0
 20 21  1  0  0  0
 16 15  1  0  0  0
 15 14  1  0  0  0
 14 13  1  0  0  0
 13 12  1  0  0  0
 12  1  1  0  0  0
  1  2  1  0  0  0
  2  3  1  0  0  0
  3  4  1  0  0  0
  4  5  1  0  0  0
  5  6  1  0  0  0
  6  7  1  0  0  0
  7  8  1  0  0  0
  8  9  1  0  0  0
  9 10  1  0  0  0
 10 11  1  0  0  0
M  END
> <minimizedAffinity>
-7.00368

> <CNNscore>
0.7264038324

> <CNNaffinity>
6.7625398636

> <CNN_VS>
4.9123349190

> <CNNaffinity_variance>
0.5082660913

$$$$
