/media/chris/experiments/cd1a-new-docking/inputs/ligands/4x6d_1_ligand.pdb


 21 20  0  0  0  0  0  0  0  0999 V2000
  -47.4956   59.2849   64.9922 C   0  0  0  0  0  0  0  0  0  0  0  0
  -48.0629   60.6801   64.9066 C   0  0  0  0  0  0  0  0  0  0  0  0
  -49.1573   60.9696   63.9698 C   0  0  0  0  0  0  0  0  0  0  0  0
  -50.5603   60.4876   64.2641 C   0  0  0  0  0  0  0  0  0  0  0  0
  -51.1764   59.8590   63.0148 C   0  0  0  0  0  0  0  0  0  0  0  0
  -50.4814   58.5698   62.5850 C   0  0  0  0  0  0  0  0  0  0  0  0
  -49.8300   58.7130   61.2069 C   0  0  0  0  0  0  0  0  0  0  0  0
  -50.2795   57.6765   60.1700 C   0  0  0  0  0  0  0  0  0  0  0  0
  -49.1468   56.7167   59.7823 C   0  0  0  0  0  0  0  0  0  0  0  0
  -47.7860   57.4131   59.6982 C   0  0  0  0  0  0  0  0  0  0  0  0
  -47.4815   57.9894   58.3101 C   0  0  0  0  0  0  0  0  0  0  0  0
  -46.1465   59.3808   65.6863 C   0  0  0  0  0  0  0  0  0  0  0  0
  -45.2511   60.4215   65.0381 C   0  0  0  0  0  0  0  0  0  0  0  0
  -43.7786   60.1203   65.3005 C   0  0  0  0  0  0  0  0  0  0  0  0
  -43.5693   59.7612   66.7650 C   0  0  0  0  0  0  0  0  0  0  0  0
  -42.1698   60.1397   67.2235 C   0  0  0  0  0  0  0  0  0  0  0  0
  -41.1285   59.7738   66.1707 C   0  0  0  0  0  0  0  0  0  0  0  0
  -40.4106   61.0260   65.7060 C   0  0  0  0  0  0  0  0  0  0  0  0
  -40.6728   62.1365   66.2346 O   0  0  0  0  0  0  0  0  0  0  0  0
  -39.5529   60.9643   64.7875 O   0  0  0  0  0  0  0  0  0  0  0  0
  -39.3520   60.1406   64.3886 H   0  0  0  0  0  0  0  0  0  0  0  0
 18 19  2  0  0  0
 18 17  1  0  0  0
 18 20  1  0  0  0
 17 16  1  0  0  0
 20 21  1  0  0  0
 16 15  1  0  0  0
 15 14  1  0  0  0
 14 13  1  0  0  0
 13 12  1  0  0  0
 12  1  1  0  0  0
  1  2  1  0  0  0
  2  3  1  0  0  0
  3  4  1  0  0  0
  4  5  1  0  0  0
  5  6  1  0  0  0
  6  7  1  0  0  0
  7  8  1  0  0  0
  8  9  1  0  0  0
  9 10  1  0  0  0
 10 11  1  0  0  0
M  END
> <minimizedAffinity>
-7.23308

> <CNNscore>
0.8910810947

> <CNNaffinity>
6.6888694763

> <CNN_VS>
5.9603252411

> <CNNaffinity_variance>
0.6323580742

$$$$
/media/chris/experiments/cd1a-new-docking/inputs/ligands/4x6d_1_ligand.pdb


 21 20  0  0  0  0  0  0  0  0999 V2000
  -47.1243   58.3910   64.5512 C   0  0  0  0  0  0  0  0  0  0  0  0
  -48.1195   58.1327   65.6551 C   0  0  0  0  0  0  0  0  0  0  0  0
  -49.4246   58.8075   65.6372 C   0  0  0  0  0  0  0  0  0  0  0  0
  -49.6551   59.9981   64.7334 C   0  0  0  0  0  0  0  0  0  0  0  0
  -50.9870   59.8539   63.9982 C   0  0  0  0  0  0  0  0  0  0  0  0
  -50.8236   59.5306   62.5155 C   0  0  0  0  0  0  0  0  0  0  0  0
  -50.4425   58.0640   62.2970 C   0  0  0  0  0  0  0  0  0  0  0  0
  -50.9047   57.4692   60.9612 C   0  0  0  0  0  0  0  0  0  0  0  0
  -50.0456   57.9512   59.7847 C   0  0  0  0  0  0  0  0  0  0  0  0
  -48.5660   57.5944   59.9493 C   0  0  0  0  0  0  0  0  0  0  0  0
  -47.6822   58.1220   58.8125 C   0  0  0  0  0  0  0  0  0  0  0  0
  -45.7504   58.5081   65.1913 C   0  0  0  0  0  0  0  0  0  0  0  0
  -44.7010   57.7256   64.4224 C   0  0  0  0  0  0  0  0  0  0  0  0
  -43.4251   57.5632   65.2430 C   0  0  0  0  0  0  0  0  0  0  0  0
  -43.5056   58.4033   66.5100 C   0  0  0  0  0  0  0  0  0  0  0  0
  -42.1408   58.9622   66.8800 C   0  0  0  0  0  0  0  0  0  0  0  0
  -42.1648   60.4866   66.9255 C   0  0  0  0  0  0  0  0  0  0  0  0
  -41.2280   61.0436   65.8712 C   0  0  0  0  0  0  0  0  0  0  0  0
  -40.4557   61.9954   66.1528 O   0  0  0  0  0  0  0  0  0  0  0  0
  -41.2195   60.5622   64.7088 O   0  0  0  0  0  0  0  0  0  0  0  0
  -41.7919   59.8530   64.4912 H   0  0  0  0  0  0  0  0  0  0  0  0
 18 19  2  0  0  0
 18 17  1  0  0  0
 18 20  1  0  0  0
 17 16  1  0  0  0
 20 21  1  0  0  0
 16 15  1  0  0  0
 15 14  1  0  0  0
 14 13  1  0  0  0
 13 12  1  0  0  0
 12  1  1  0  0  0
  1  2  1  0  0  0
  2  3  1  0  0  0
  3  4  1  0  0  0
  4  5  1  0  0  0
  5  6  1  0  0  0
  6  7  1  0  0  0
  7  8  1  0  0  0
  8  9  1  0  0  0
  9 10  1  0  0  0
 10 11  1  0  0  0
M  END
> <minimizedAffinity>
-7.10064

> <CNNscore>
0.8713477254

> <CNNaffinity>
6.8351335526

> <CNN_VS>
5.9557781219

> <CNNaffinity_variance>
0.5646516085

$$$$
/media/chris/experiments/cd1a-new-docking/inputs/ligands/4x6d_1_ligand.pdb


 21 20  0  0  0  0  0  0  0  0999 V2000
  -45.2932   60.1630   65.3862 C   0  0  0  0  0  0  0  0  0  0  0  0
  -46.7730   59.8744   65.4366 C   0  0  0  0  0  0  0  0  0  0  0  0
  -47.7343   60.9014   65.0122 C   0  0  0  0  0  0  0  0  0  0  0  0
  -48.6435   60.6526   63.8295 C   0  0  0  0  0  0  0  0  0  0  0  0
  -48.9273   59.1579   63.6859 C   0  0  0  0  0  0  0  0  0  0  0  0
  -50.3055   58.8607   63.1011 C   0  0  0  0  0  0  0  0  0  0  0  0
  -50.2252   58.5308   61.6083 C   0  0  0  0  0  0  0  0  0  0  0  0
  -48.8314   58.1299   61.1100 C   0  0  0  0  0  0  0  0  0  0  0  0
  -48.7386   58.1413   59.5784 C   0  0  0  0  0  0  0  0  0  0  0  0
  -47.4463   57.5045   59.0607 C   0  0  0  0  0  0  0  0  0  0  0  0
  -47.0171   58.0296   57.6853 C   0  0  0  0  0  0  0  0  0  0  0  0
  -44.6181   59.2761   66.4201 C   0  0  0  0  0  0  0  0  0  0  0  0
  -43.3345   59.8956   66.9432 C   0  0  0  0  0  0  0  0  0  0  0  0
  -42.1974   58.8784   66.9538 C   0  0  0  0  0  0  0  0  0  0  0  0
  -41.9073   58.4010   65.5377 C   0  0  0  0  0  0  0  0  0  0  0  0
  -40.4827   58.7420   65.1296 C   0  0  0  0  0  0  0  0  0  0  0  0
  -40.3998   60.1487   64.5459 C   0  0  0  0  0  0  0  0  0  0  0  0
  -39.9235   61.1164   65.6118 C   0  0  0  0  0  0  0  0  0  0  0  0
  -38.7945   60.9630   66.1442 O   0  0  0  0  0  0  0  0  0  0  0  0
  -40.6540   62.0746   65.9739 O   0  0  0  0  0  0  0  0  0  0  0  0
  -41.4965   62.1956   65.5821 H   0  0  0  0  0  0  0  0  0  0  0  0
 18 19  2  0  0  0
 18 17  1  0  0  0
 18 20  1  0  0  0
 17 16  1  0  0  0
 20 21  1  0  0  0
 16 15  1  0  0  0
 15 14  1  0  0  0
 14 13  1  0  0  0
 13 12  1  0  0  0
 12  1  1  0  0  0
  1  2  1  0  0  0
  2  3  1  0  0  0
  3  4  1  0  0  0
  4  5  1  0  0  0
  5  6  1  0  0  0
  6  7  1  0  0  0
  7  8  1  0  0  0
  8  9  1  0  0  0
  9 10  1  0  0  0
 10 11  1  0  0  0
M  END
> <minimizedAffinity>
-6.97289

> <CNNscore>
0.8313935399

> <CNNaffinity>
6.5516190529

> <CNN_VS>
5.4469738007

> <CNNaffinity_variance>
0.4179161489

$$$$
/media/chris/experiments/cd1a-new-docking/inputs/ligands/4x6d_1_ligand.pdb


 21 20  0  0  0  0  0  0  0  0999 V2000
  -46.7690   59.2090   66.4123 C   0  0  0  0  0  0  0  0  0  0  0  0
  -47.7611   60.3077   66.1217 C   0  0  0  0  0  0  0  0  0  0  0  0
  -47.8550   60.8704   64.7677 C   0  0  0  0  0  0  0  0  0  0  0  0
  -49.2013   61.2456   64.1896 C   0  0  0  0  0  0  0  0  0  0  0  0
  -50.1977   60.1036   64.3852 C   0  0  0  0  0  0  0  0  0  0  0  0
  -51.1686   59.9460   63.2182 C   0  0  0  0  0  0  0  0  0  0  0  0
  -50.9718   58.6095   62.4977 C   0  0  0  0  0  0  0  0  0  0  0  0
  -49.5853   57.9788   62.6753 C   0  0  0  0  0  0  0  0  0  0  0  0
  -48.5825   58.4808   61.6281 C   0  0  0  0  0  0  0  0  0  0  0  0
  -49.0843   58.2949   60.1937 C   0  0  0  0  0  0  0  0  0  0  0  0
  -47.9567   58.0783   59.1772 C   0  0  0  0  0  0  0  0  0  0  0  0
  -46.1961   58.7458   65.0825 C   0  0  0  0  0  0  0  0  0  0  0  0
  -45.4359   57.4388   65.2201 C   0  0  0  0  0  0  0  0  0  0  0  0
  -43.9427   57.6434   64.9826 C   0  0  0  0  0  0  0  0  0  0  0  0
  -43.2524   58.0280   66.2838 C   0  0  0  0  0  0  0  0  0  0  0  0
  -41.8943   58.6564   66.0141 C   0  0  0  0  0  0  0  0  0  0  0  0
  -41.8183   60.0681   66.5867 C   0  0  0  0  0  0  0  0  0  0  0  0
  -40.7941   60.8775   65.8151 C   0  0  0  0  0  0  0  0  0  0  0  0
  -40.2188   60.3778   64.8146 O   0  0  0  0  0  0  0  0  0  0  0  0
  -40.5095   62.0501   66.1716 O   0  0  0  0  0  0  0  0  0  0  0  0
  -40.9338   62.4294   66.9159 H   0  0  0  0  0  0  0  0  0  0  0  0
 18 19  2  0  0  0
 18 17  1  0  0  0
 18 20  1  0  0  0
 17 16  1  0  0  0
 20 21  1  0  0  0
 16 15  1  0  0  0
 15 14  1  0  0  0
 14 13  1  0  0  0
 13 12  1  0  0  0
 12  1  1  0  0  0
  1  2  1  0  0  0
  2  3  1  0  0  0
  3  4  1  0  0  0
  4  5  1  0  0  0
  5  6  1  0  0  0
  6  7  1  0  0  0
  7  8  1  0  0  0
  8  9  1  0  0  0
  9 10  1  0  0  0
 10 11  1  0  0  0
M  END
> <minimizedAffinity>
-6.71666

> <CNNscore>
0.7670899630

> <CNNaffinity>
6.5496811867

> <CNN_VS>
5.0241947174

> <CNNaffinity_variance>
0.4447689056

$$$$
/media/chris/experiments/cd1a-new-docking/inputs/ligands/4x6d_1_ligand.pdb


 21 20  0  0  0  0  0  0  0  0999 V2000
  -46.9475   57.5118   66.2431 C   0  0  0  0  0  0  0  0  0  0  0  0
  -47.8003   58.0387   65.1158 C   0  0  0  0  0  0  0  0  0  0  0  0
  -49.2634   58.0543   65.2499 C   0  0  0  0  0  0  0  0  0  0  0  0
  -49.9644   59.2691   65.8159 C   0  0  0  0  0  0  0  0  0  0  0  0
  -50.1203   60.3401   64.7371 C   0  0  0  0  0  0  0  0  0  0  0  0
  -51.1464   59.9727   63.6686 C   0  0  0  0  0  0  0  0  0  0  0  0
  -50.5124   59.9084   62.2766 C   0  0  0  0  0  0  0  0  0  0  0  0
  -50.2487   58.4915   61.7525 C   0  0  0  0  0  0  0  0  0  0  0  0
  -48.7705   58.2677   61.4074 C   0  0  0  0  0  0  0  0  0  0  0  0
  -48.5385   58.0667   59.9075 C   0  0  0  0  0  0  0  0  0  0  0  0
  -49.7754   57.5476   59.1642 C   0  0  0  0  0  0  0  0  0  0  0  0
  -46.0242   58.6364   66.6833 C   0  0  0  0  0  0  0  0  0  0  0  0
  -45.6307   59.5310   65.5214 C   0  0  0  0  0  0  0  0  0  0  0  0
  -44.1163   59.7003   65.4459 C   0  0  0  0  0  0  0  0  0  0  0  0
  -43.7639   60.8723   64.5406 C   0  0  0  0  0  0  0  0  0  0  0  0
  -42.6347   60.5058   63.5904 C   0  0  0  0  0  0  0  0  0  0  0  0
  -41.4300   61.4199   63.7894 C   0  0  0  0  0  0  0  0  0  0  0  0
  -40.2162   60.5910   64.1619 C   0  0  0  0  0  0  0  0  0  0  0  0
  -39.0949   61.1424   64.3038 O   0  0  0  0  0  0  0  0  0  0  0  0
  -40.3205   59.3480   64.3270 O   0  0  0  0  0  0  0  0  0  0  0  0
  -41.1524   58.9297   64.2231 H   0  0  0  0  0  0  0  0  0  0  0  0
 18 19  2  0  0  0
 18 17  1  0  0  0
 18 20  1  0  0  0
 17 16  1  0  0  0
 20 21  1  0  0  0
 16 15  1  0  0  0
 15 14  1  0  0  0
 14 13  1  0  0  0
 13 12  1  0  0  0
 12  1  1  0  0  0
  1  2  1  0  0  0
  2  3  1  0  0  0
  3  4  1  0  0  0
  4  5  1  0  0  0
  5  6  1  0  0  0
  6  7  1  0  0  0
  7  8  1  0  0  0
  8  9  1  0  0  0
  9 10  1  0  0  0
 10 11  1  0  0  0
M  END
> <minimizedAffinity>
-6.37888

> <CNNscore>
0.7266078591

> <CNNaffinity>
6.5323362350

> <CNN_VS>
4.7464466095

> <CNNaffinity_variance>
0.4733391702

$$$$
/media/chris/experiments/cd1a-new-docking/inputs/ligands/4x6d_1_ligand.pdb


 21 20  0  0  0  0  0  0  0  0999 V2000
  -50.0049   58.5075   65.3303 C   0  0  0  0  0  0  0  0  0  0  0  0
  -48.5263   58.6179   65.6084 C   0  0  0  0  0  0  0  0  0  0  0  0
  -47.6959   57.4063   65.6468 C   0  0  0  0  0  0  0  0  0  0  0  0
  -46.2096   57.5086   65.9077 C   0  0  0  0  0  0  0  0  0  0  0  0
  -45.4892   58.0302   64.6651 C   0  0  0  0  0  0  0  0  0  0  0  0
  -44.0134   57.6436   64.6188 C   0  0  0  0  0  0  0  0  0  0  0  0
  -43.1117   58.8111   65.0283 C   0  0  0  0  0  0  0  0  0  0  0  0
  -43.5586   60.1839   64.5111 C   0  0  0  0  0  0  0  0  0  0  0  0
  -42.3684   61.0773   64.1375 C   0  0  0  0  0  0  0  0  0  0  0  0
  -42.0367   61.0245   62.6439 C   0  0  0  0  0  0  0  0  0  0  0  0
  -42.3921   62.3147   61.8951 C   0  0  0  0  0  0  0  0  0  0  0  0
  -50.4817   59.8657   64.8414 C   0  0  0  0  0  0  0  0  0  0  0  0
  -50.8949   59.8266   63.3810 C   0  0  0  0  0  0  0  0  0  0  0  0
  -50.7531   58.4202   62.8067 C   0  0  0  0  0  0  0  0  0  0  0  0
  -49.9355   58.4576   61.5231 C   0  0  0  0  0  0  0  0  0  0  0  0
  -50.3133   57.3070   60.6035 C   0  0  0  0  0  0  0  0  0  0  0  0
  -49.7154   57.4954   59.2130 C   0  0  0  0  0  0  0  0  0  0  0  0
  -48.3598   56.8193   59.1444 C   0  0  0  0  0  0  0  0  0  0  0  0
  -48.2789   55.5645   59.1634 O   0  0  0  0  0  0  0  0  0  0  0  0
  -47.3085   57.5068   59.0728 O   0  0  0  0  0  0  0  0  0  0  0  0
  -47.3605   58.4422   59.0582 H   0  0  0  0  0  0  0  0  0  0  0  0
 18 19  2  0  0  0
 18 17  1  0  0  0
 18 20  1  0  0  0
 17 16  1  0  0  0
 20 21  1  0  0  0
 16 15  1  0  0  0
 15 14  1  0  0  0
 14 13  1  0  0  0
 13 12  1  0  0  0
 12  1  1  0  0  0
  1  2  1  0  0  0
  2  3  1  0  0  0
  3  4  1  0  0  0
  4  5  1  0  0  0
  5  6  1  0  0  0
  6  7  1  0  0  0
  7  8  1  0  0  0
  8  9  1  0  0  0
  9 10  1  0  0  0
 10 11  1  0  0  0
M  END
> <minimizedAffinity>
-6.98276

> <CNNscore>
0.7063808441

> <CNNaffinity>
6.5781874657

> <CNN_VS>
4.6467056274

> <CNNaffinity_variance>
0.5614148974

$$$$
/media/chris/experiments/cd1a-new-docking/inputs/ligands/4x6d_1_ligand.pdb


 21 20  0  0  0  0  0  0  0  0999 V2000
  -45.2264   60.1425   65.2204 C   0  0  0  0  0  0  0  0  0  0  0  0
  -46.7118   60.3548   65.3762 C   0  0  0  0  0  0  0  0  0  0  0  0
  -47.6535   59.3601   64.8444 C   0  0  0  0  0  0  0  0  0  0  0  0
  -48.7660   58.8212   65.7158 C   0  0  0  0  0  0  0  0  0  0  0  0
  -50.0339   58.6158   64.8878 C   0  0  0  0  0  0  0  0  0  0  0  0
  -50.6831   59.9249   64.4469 C   0  0  0  0  0  0  0  0  0  0  0  0
  -51.0204   59.9120   62.9536 C   0  0  0  0  0  0  0  0  0  0  0  0
  -49.8631   60.3046   62.0272 C   0  0  0  0  0  0  0  0  0  0  0  0
  -49.5714   59.2255   60.9760 C   0  0  0  0  0  0  0  0  0  0  0  0
  -50.3777   57.9445   61.2059 C   0  0  0  0  0  0  0  0  0  0  0  0
  -49.8521   56.7432   60.4106 C   0  0  0  0  0  0  0  0  0  0  0  0
  -44.7352   59.4141   66.4610 C   0  0  0  0  0  0  0  0  0  0  0  0
  -44.4315   57.9543   66.1752 C   0  0  0  0  0  0  0  0  0  0  0  0
  -42.9289   57.6907   66.1969 C   0  0  0  0  0  0  0  0  0  0  0  0
  -42.2035   58.8441   66.8759 C   0  0  0  0  0  0  0  0  0  0  0  0
  -41.0313   59.3213   66.0331 C   0  0  0  0  0  0  0  0  0  0  0  0
  -41.5046   60.2024   64.8815 C   0  0  0  0  0  0  0  0  0  0  0  0
  -40.9423   61.6012   65.0445 C   0  0  0  0  0  0  0  0  0  0  0  0
  -40.3706   61.9306   66.1151 O   0  0  0  0  0  0  0  0  0  0  0  0
  -41.0471   62.4418   64.1142 O   0  0  0  0  0  0  0  0  0  0  0  0
  -41.4717   62.2040   63.3135 H   0  0  0  0  0  0  0  0  0  0  0  0
 18 19  2  0  0  0
 18 17  1  0  0  0
 18 20  1  0  0  0
 17 16  1  0  0  0
 20 21  1  0  0  0
 16 15  1  0  0  0
 15 14  1  0  0  0
 14 13  1  0  0  0
 13 12  1  0  0  0
 12  1  1  0  0  0
  1  2  1  0  0  0
  2  3  1  0  0  0
  3  4  1  0  0  0
  4  5  1  0  0  0
  5  6  1  0  0  0
  6  7  1  0  0  0
  7  8  1  0  0  0
  8  9  1  0  0  0
  9 10  1  0  0  0
 10 11  1  0  0  0
M  END
> <minimizedAffinity>
-6.76684

> <CNNscore>
0.6978419423

> <CNNaffinity>
6.3870310783

> <CNN_VS>
4.4571380615

> <CNNaffinity_variance>
0.5192724466

$$$$
/media/chris/experiments/cd1a-new-docking/inputs/ligands/4x6d_1_ligand.pdb


 21 20  0  0  0  0  0  0  0  0999 V2000
  -43.9311   57.0250   64.9911 C   0  0  0  0  0  0  0  0  0  0  0  0
  -45.3575   57.1204   65.4729 C   0  0  0  0  0  0  0  0  0  0  0  0
  -46.2756   58.0878   64.8563 C   0  0  0  0  0  0  0  0  0  0  0  0
  -47.7714   57.9218   65.0061 C   0  0  0  0  0  0  0  0  0  0  0  0
  -48.4934   58.5215   63.8002 C   0  0  0  0  0  0  0  0  0  0  0  0
  -50.0025   58.6353   63.9982 C   0  0  0  0  0  0  0  0  0  0  0  0
  -50.7482   58.6334   62.6611 C   0  0  0  0  0  0  0  0  0  0  0  0
  -49.8553   58.4750   61.4245 C   0  0  0  0  0  0  0  0  0  0  0  0
  -50.4498   57.4970   60.4025 C   0  0  0  0  0  0  0  0  0  0  0  0
  -49.7056   57.5166   59.0647 C   0  0  0  0  0  0  0  0  0  0  0  0
  -48.2433   57.9618   59.1878 C   0  0  0  0  0  0  0  0  0  0  0  0
  -43.0291   57.4217   66.1487 C   0  0  0  0  0  0  0  0  0  0  0  0
  -43.0504   58.9200   66.3931 C   0  0  0  0  0  0  0  0  0  0  0  0
  -41.6366   59.4724   66.5468 C   0  0  0  0  0  0  0  0  0  0  0  0
  -41.4542   60.7000   65.6653 C   0  0  0  0  0  0  0  0  0  0  0  0
  -41.4148   60.3134   64.1952 C   0  0  0  0  0  0  0  0  0  0  0  0
  -42.5221   61.0123   63.4130 C   0  0  0  0  0  0  0  0  0  0  0  0
  -41.9548   61.5904   62.1311 C   0  0  0  0  0  0  0  0  0  0  0  0
  -42.5279   62.5575   61.5672 O   0  0  0  0  0  0  0  0  0  0  0  0
  -40.9119   61.1055   61.6209 O   0  0  0  0  0  0  0  0  0  0  0  0
  -40.4791   60.3849   62.0349 H   0  0  0  0  0  0  0  0  0  0  0  0
 18 19  2  0  0  0
 18 17  1  0  0  0
 18 20  1  0  0  0
 17 16  1  0  0  0
 20 21  1  0  0  0
 16 15  1  0  0  0
 15 14  1  0  0  0
 14 13  1  0  0  0
 13 12  1  0  0  0
 12  1  1  0  0  0
  1  2  1  0  0  0
  2  3  1  0  0  0
  3  4  1  0  0  0
  4  5  1  0  0  0
  5  6  1  0  0  0
  6  7  1  0  0  0
  7  8  1  0  0  0
  8  9  1  0  0  0
  9 10  1  0  0  0
 10 11  1  0  0  0
M  END
> <minimizedAffinity>
-6.74783

> <CNNscore>
0.6850757599

> <CNNaffinity>
6.5619325638

> <CNN_VS>
4.4954209328

> <CNNaffinity_variance>
0.7004815936

$$$$
/media/chris/experiments/cd1a-new-docking/inputs/ligands/4x6d_1_ligand.pdb


 21 20  0  0  0  0  0  0  0  0999 V2000
  -42.2747   59.5934   66.5151 C   0  0  0  0  0  0  0  0  0  0  0  0
  -42.9740   58.7239   65.4999 C   0  0  0  0  0  0  0  0  0  0  0  0
  -43.8901   57.6664   65.9486 C   0  0  0  0  0  0  0  0  0  0  0  0
  -45.2877   58.0137   66.4108 C   0  0  0  0  0  0  0  0  0  0  0  0
  -46.1414   58.4601   65.2245 C   0  0  0  0  0  0  0  0  0  0  0  0
  -46.5023   59.9425   65.2673 C   0  0  0  0  0  0  0  0  0  0  0  0
  -47.8682   60.1715   65.9198 C   0  0  0  0  0  0  0  0  0  0  0  0
  -48.9107   59.0840   65.6332 C   0  0  0  0  0  0  0  0  0  0  0  0
  -50.3396   59.6428   65.6123 C   0  0  0  0  0  0  0  0  0  0  0  0
  -50.7946   60.0472   64.2075 C   0  0  0  0  0  0  0  0  0  0  0  0
  -50.5270   58.9718   63.1476 C   0  0  0  0  0  0  0  0  0  0  0  0
  -40.8544   59.8205   66.0228 C   0  0  0  0  0  0  0  0  0  0  0  0
  -40.4224   58.7525   65.0339 C   0  0  0  0  0  0  0  0  0  0  0  0
  -39.3153   59.2663   64.1183 C   0  0  0  0  0  0  0  0  0  0  0  0
  -38.4790   58.1034   63.6028 C   0  0  0  0  0  0  0  0  0  0  0  0
  -38.1212   58.2977   62.1378 C   0  0  0  0  0  0  0  0  0  0  0  0
  -36.7797   57.6506   61.8088 C   0  0  0  0  0  0  0  0  0  0  0  0
  -36.7007   57.3676   60.3212 C   0  0  0  0  0  0  0  0  0  0  0  0
  -36.1520   56.3144   59.9076 O   0  0  0  0  0  0  0  0  0  0  0  0
  -37.1780   58.1843   59.4916 O   0  0  0  0  0  0  0  0  0  0  0  0
  -37.5884   58.9713   59.7918 H   0  0  0  0  0  0  0  0  0  0  0  0
 18 19  2  0  0  0
 18 17  1  0  0  0
 18 20  1  0  0  0
 17 16  1  0  0  0
 20 21  1  0  0  0
 16 15  1  0  0  0
 15 14  1  0  0  0
 14 13  1  0  0  0
 13 12  1  0  0  0
 12  1  1  0  0  0
  1  2  1  0  0  0
  2  3  1  0  0  0
  3  4  1  0  0  0
  4  5  1  0  0  0
  5  6  1  0  0  0
  6  7  1  0  0  0
  7  8  1  0  0  0
  8  9  1  0  0  0
  9 10  1  0  0  0
 10 11  1  0  0  0
M  END
> <minimizedAffinity>
-6.36619

> <CNNscore>
0.6550677419

> <CNNaffinity>
6.2693481445

> <CNN_VS>
4.1068477631

> <CNNaffinity_variance>
0.7256855965

$$$$
