/media/chris/experiments/cd1a-new-docking/inputs/ligands/4x6d_1_ligand.pdb


 21 20  0  0  0  0  0  0  0  0999 V2000
  -47.0575   56.7694   65.9480 C   0  0  0  0  0  0  0  0  0  0  0  0
  -47.7931   57.8461   65.1894 C   0  0  0  0  0  0  0  0  0  0  0  0
  -47.7112   59.2433   65.6367 C   0  0  0  0  0  0  0  0  0  0  0  0
  -48.9630   59.9880   66.0440 C   0  0  0  0  0  0  0  0  0  0  0  0
  -50.1935   59.3404   65.4099 C   0  0  0  0  0  0  0  0  0  0  0  0
  -50.9281   60.2643   64.4422 C   0  0  0  0  0  0  0  0  0  0  0  0
  -50.9910   59.6694   63.0329 C   0  0  0  0  0  0  0  0  0  0  0  0
  -49.7548   59.9340   62.1650 C   0  0  0  0  0  0  0  0  0  0  0  0
  -49.0937   58.6344   61.6872 C   0  0  0  0  0  0  0  0  0  0  0  0
  -49.3456   58.3550   60.2033 C   0  0  0  0  0  0  0  0  0  0  0  0
  -48.0662   58.3539   59.3579 C   0  0  0  0  0  0  0  0  0  0  0  0
  -45.6737   57.3055   66.2780 C   0  0  0  0  0  0  0  0  0  0  0  0
  -44.7206   57.1678   65.1042 C   0  0  0  0  0  0  0  0  0  0  0  0
  -43.2750   57.3848   65.5411 C   0  0  0  0  0  0  0  0  0  0  0  0
  -43.1735   58.6213   66.4233 C   0  0  0  0  0  0  0  0  0  0  0  0
  -41.7615   59.1852   66.4098 C   0  0  0  0  0  0  0  0  0  0  0  0
  -41.7671   60.6877   66.6718 C   0  0  0  0  0  0  0  0  0  0  0  0
  -40.6869   61.3545   65.8425 C   0  0  0  0  0  0  0  0  0  0  0  0
  -39.4783   61.2405   66.1711 O   0  0  0  0  0  0  0  0  0  0  0  0
  -40.9910   62.0289   64.8247 O   0  0  0  0  0  0  0  0  0  0  0  0
  -41.8891   62.1186   64.5732 H   0  0  0  0  0  0  0  0  0  0  0  0
 18 19  2  0  0  0
 18 17  1  0  0  0
 18 20  1  0  0  0
 17 16  1  0  0  0
 20 21  1  0  0  0
 16 15  1  0  0  0
 15 14  1  0  0  0
 14 13  1  0  0  0
 13 12  1  0  0  0
 12  1  1  0  0  0
  1  2  1  0  0  0
  2  3  1  0  0  0
  3  4  1  0  0  0
  4  5  1  0  0  0
  5  6  1  0  0  0
  6  7  1  0  0  0
  7  8  1  0  0  0
  8  9  1  0  0  0
  9 10  1  0  0  0
 10 11  1  0  0  0
M  END
> <minimizedAffinity>
-6.92904

> <CNNscore>
0.9272505045

> <CNNaffinity>
6.8447523117

> <CNN_VS>
6.3467998505

> <CNNaffinity_variance>
0.4668998718

$$$$
/media/chris/experiments/cd1a-new-docking/inputs/ligands/4x6d_1_ligand.pdb


 21 20  0  0  0  0  0  0  0  0999 V2000
  -46.8172   58.3463   64.9044 C   0  0  0  0  0  0  0  0  0  0  0  0
  -47.5405   59.6616   65.0554 C   0  0  0  0  0  0  0  0  0  0  0  0
  -48.7213   59.7524   65.9251 C   0  0  0  0  0  0  0  0  0  0  0  0
  -50.0458   59.1777   65.4748 C   0  0  0  0  0  0  0  0  0  0  0  0
  -50.7459   60.1461   64.5222 C   0  0  0  0  0  0  0  0  0  0  0  0
  -51.0121   59.5470   63.1439 C   0  0  0  0  0  0  0  0  0  0  0  0
  -49.8535   59.8150   62.1795 C   0  0  0  0  0  0  0  0  0  0  0  0
  -49.1502   58.5592   61.6508 C   0  0  0  0  0  0  0  0  0  0  0  0
  -49.0087   58.5745   60.1230 C   0  0  0  0  0  0  0  0  0  0  0  0
  -47.8602   57.6917   59.6278 C   0  0  0  0  0  0  0  0  0  0  0  0
  -48.3008   56.2707   59.2562 C   0  0  0  0  0  0  0  0  0  0  0  0
  -45.3294   58.6483   64.8250 C   0  0  0  0  0  0  0  0  0  0  0  0
  -44.4961   57.5527   65.4658 C   0  0  0  0  0  0  0  0  0  0  0  0
  -43.2779   58.1333   66.1776 C   0  0  0  0  0  0  0  0  0  0  0  0
  -43.6659   59.3933   66.9385 C   0  0  0  0  0  0  0  0  0  0  0  0
  -42.4809   60.3374   67.0683 C   0  0  0  0  0  0  0  0  0  0  0  0
  -41.3695   59.9617   66.0936 C   0  0  0  0  0  0  0  0  0  0  0  0
  -40.4713   61.1602   65.8571 C   0  0  0  0  0  0  0  0  0  0  0  0
  -40.9450   62.2165   65.3656 O   0  0  0  0  0  0  0  0  0  0  0  0
  -39.2479   61.1058   66.1457 O   0  0  0  0  0  0  0  0  0  0  0  0
  -38.8873   60.3224   66.5122 H   0  0  0  0  0  0  0  0  0  0  0  0
 18 19  2  0  0  0
 18 17  1  0  0  0
 18 20  1  0  0  0
 17 16  1  0  0  0
 20 21  1  0  0  0
 16 15  1  0  0  0
 15 14  1  0  0  0
 14 13  1  0  0  0
 13 12  1  0  0  0
 12  1  1  0  0  0
  1  2  1  0  0  0
  2  3  1  0  0  0
  3  4  1  0  0  0
  4  5  1  0  0  0
  5  6  1  0  0  0
  6  7  1  0  0  0
  7  8  1  0  0  0
  8  9  1  0  0  0
  9 10  1  0  0  0
 10 11  1  0  0  0
M  END
> <minimizedAffinity>
-6.78016

> <CNNscore>
0.9022395611

> <CNNaffinity>
6.8991432190

> <CNN_VS>
6.2246799469

> <CNNaffinity_variance>
0.5975418687

$$$$
/media/chris/experiments/cd1a-new-docking/inputs/ligands/4x6d_1_ligand.pdb


 21 20  0  0  0  0  0  0  0  0999 V2000
  -46.2104   60.4711   65.1190 C   0  0  0  0  0  0  0  0  0  0  0  0
  -47.5218   59.7274   65.0642 C   0  0  0  0  0  0  0  0  0  0  0  0
  -48.6597   60.3022   64.3335 C   0  0  0  0  0  0  0  0  0  0  0  0
  -49.7359   59.4022   63.7685 C   0  0  0  0  0  0  0  0  0  0  0  0
  -49.1055   58.2531   62.9826 C   0  0  0  0  0  0  0  0  0  0  0  0
  -49.6543   58.1222   61.5644 C   0  0  0  0  0  0  0  0  0  0  0  0
  -48.9559   59.0835   60.5988 C   0  0  0  0  0  0  0  0  0  0  0  0
  -48.2423   58.4095   59.4208 C   0  0  0  0  0  0  0  0  0  0  0  0
  -48.9164   57.0931   59.0118 C   0  0  0  0  0  0  0  0  0  0  0  0
  -47.9123   55.9574   58.7984 C   0  0  0  0  0  0  0  0  0  0  0  0
  -47.6896   55.6108   57.3214 C   0  0  0  0  0  0  0  0  0  0  0  0
  -45.1898   59.5525   65.7713 C   0  0  0  0  0  0  0  0  0  0  0  0
  -43.9717   59.3453   64.8890 C   0  0  0  0  0  0  0  0  0  0  0  0
  -42.8044   60.2128   65.3503 C   0  0  0  0  0  0  0  0  0  0  0  0
  -41.6278   59.3364   65.7564 C   0  0  0  0  0  0  0  0  0  0  0  0
  -40.3448   60.1488   65.8326 C   0  0  0  0  0  0  0  0  0  0  0  0
  -39.1494   59.3355   65.3468 C   0  0  0  0  0  0  0  0  0  0  0  0
  -37.8711   60.1163   65.5824 C   0  0  0  0  0  0  0  0  0  0  0  0
  -37.8108   60.9631   66.5103 O   0  0  0  0  0  0  0  0  0  0  0  0
  -36.8654   59.9269   64.8505 O   0  0  0  0  0  0  0  0  0  0  0  0
  -36.9023   59.2978   64.1570 H   0  0  0  0  0  0  0  0  0  0  0  0
 18 19  2  0  0  0
 18 17  1  0  0  0
 18 20  1  0  0  0
 17 16  1  0  0  0
 20 21  1  0  0  0
 16 15  1  0  0  0
 15 14  1  0  0  0
 14 13  1  0  0  0
 13 12  1  0  0  0
 12  1  1  0  0  0
  1  2  1  0  0  0
  2  3  1  0  0  0
  3  4  1  0  0  0
  4  5  1  0  0  0
  5  6  1  0  0  0
  6  7  1  0  0  0
  7  8  1  0  0  0
  8  9  1  0  0  0
  9 10  1  0  0  0
 10 11  1  0  0  0
M  END
> <minimizedAffinity>
-6.36359

> <CNNscore>
0.8540330529

> <CNNaffinity>
6.6358489990

> <CNN_VS>
5.6672344208

> <CNNaffinity_variance>
0.8386759758

$$$$
/media/chris/experiments/cd1a-new-docking/inputs/ligands/4x6d_1_ligand.pdb


 21 20  0  0  0  0  0  0  0  0999 V2000
  -47.9915   60.5792   66.1470 C   0  0  0  0  0  0  0  0  0  0  0  0
  -48.8464   59.3446   66.0027 C   0  0  0  0  0  0  0  0  0  0  0  0
  -50.2226   59.4613   65.5013 C   0  0  0  0  0  0  0  0  0  0  0  0
  -50.5659   60.4923   64.4494 C   0  0  0  0  0  0  0  0  0  0  0  0
  -51.1227   59.8088   63.2010 C   0  0  0  0  0  0  0  0  0  0  0  0
  -50.4608   58.4657   62.9049 C   0  0  0  0  0  0  0  0  0  0  0  0
  -49.1021   58.6452   62.2224 C   0  0  0  0  0  0  0  0  0  0  0  0
  -49.1615   59.2561   60.8172 C   0  0  0  0  0  0  0  0  0  0  0  0
  -49.0185   58.1950   59.7180 C   0  0  0  0  0  0  0  0  0  0  0  0
  -47.7278   58.3525   58.9101 C   0  0  0  0  0  0  0  0  0  0  0  0
  -47.0175   57.0224   58.6314 C   0  0  0  0  0  0  0  0  0  0  0  0
  -46.8300   60.4482   65.1749 C   0  0  0  0  0  0  0  0  0  0  0  0
  -46.3962   59.0031   65.0055 C   0  0  0  0  0  0  0  0  0  0  0  0
  -44.8841   58.8619   65.1523 C   0  0  0  0  0  0  0  0  0  0  0  0
  -44.3804   59.7560   66.2767 C   0  0  0  0  0  0  0  0  0  0  0  0
  -42.9655   59.3747   66.6829 C   0  0  0  0  0  0  0  0  0  0  0  0
  -42.1689   60.6009   67.1168 C   0  0  0  0  0  0  0  0  0  0  0  0
  -41.1564   60.9570   66.0457 C   0  0  0  0  0  0  0  0  0  0  0  0
  -40.4732   62.0081   66.1475 O   0  0  0  0  0  0  0  0  0  0  0  0
  -40.9957   60.2083   65.0474 O   0  0  0  0  0  0  0  0  0  0  0  0
  -41.5008   59.4235   64.9642 H   0  0  0  0  0  0  0  0  0  0  0  0
 18 19  2  0  0  0
 18 17  1  0  0  0
 18 20  1  0  0  0
 17 16  1  0  0  0
 20 21  1  0  0  0
 16 15  1  0  0  0
 15 14  1  0  0  0
 14 13  1  0  0  0
 13 12  1  0  0  0
 12  1  1  0  0  0
  1  2  1  0  0  0
  2  3  1  0  0  0
  3  4  1  0  0  0
  4  5  1  0  0  0
  5  6  1  0  0  0
  6  7  1  0  0  0
  7  8  1  0  0  0
  8  9  1  0  0  0
  9 10  1  0  0  0
 10 11  1  0  0  0
M  END
> <minimizedAffinity>
-7.06803

> <CNNscore>
0.7983052135

> <CNNaffinity>
6.5822281837

> <CNN_VS>
5.2546272278

> <CNNaffinity_variance>
0.3778278530

$$$$
/media/chris/experiments/cd1a-new-docking/inputs/ligands/4x6d_1_ligand.pdb


 21 20  0  0  0  0  0  0  0  0999 V2000
  -46.1660   60.6520   65.1084 C   0  0  0  0  0  0  0  0  0  0  0  0
  -47.6593   60.8237   65.2370 C   0  0  0  0  0  0  0  0  0  0  0  0
  -48.4361   59.8864   66.0597 C   0  0  0  0  0  0  0  0  0  0  0  0
  -49.4817   58.9986   65.4226 C   0  0  0  0  0  0  0  0  0  0  0  0
  -48.9231   58.3474   64.1579 C   0  0  0  0  0  0  0  0  0  0  0  0
  -49.8419   58.4969   62.9484 C   0  0  0  0  0  0  0  0  0  0  0  0
  -49.5093   59.7538   62.1398 C   0  0  0  0  0  0  0  0  0  0  0  0
  -49.0712   59.4935   60.6935 C   0  0  0  0  0  0  0  0  0  0  0  0
  -48.6718   58.0298   60.4639 C   0  0  0  0  0  0  0  0  0  0  0  0
  -48.6382   57.6530   58.9806 C   0  0  0  0  0  0  0  0  0  0  0  0
  -47.3453   58.0772   58.2735 C   0  0  0  0  0  0  0  0  0  0  0  0
  -45.7910   59.3598   65.8158 C   0  0  0  0  0  0  0  0  0  0  0  0
  -44.9440   58.4592   64.9345 C   0  0  0  0  0  0  0  0  0  0  0  0
  -43.5455   59.0373   64.7401 C   0  0  0  0  0  0  0  0  0  0  0  0
  -42.5195   58.1877   65.4769 C   0  0  0  0  0  0  0  0  0  0  0  0
  -41.9664   58.9277   66.6846 C   0  0  0  0  0  0  0  0  0  0  0  0
  -42.1570   60.4341   66.5409 C   0  0  0  0  0  0  0  0  0  0  0  0
  -40.8440   61.0789   66.1415 C   0  0  0  0  0  0  0  0  0  0  0  0
  -40.8040   62.3021   65.8520 O   0  0  0  0  0  0  0  0  0  0  0  0
  -39.7884   60.3960   66.0924 O   0  0  0  0  0  0  0  0  0  0  0  0
  -39.8099   59.4841   66.3066 H   0  0  0  0  0  0  0  0  0  0  0  0
 18 19  2  0  0  0
 18 17  1  0  0  0
 18 20  1  0  0  0
 17 16  1  0  0  0
 20 21  1  0  0  0
 16 15  1  0  0  0
 15 14  1  0  0  0
 14 13  1  0  0  0
 13 12  1  0  0  0
 12  1  1  0  0  0
  1  2  1  0  0  0
  2  3  1  0  0  0
  3  4  1  0  0  0
  4  5  1  0  0  0
  5  6  1  0  0  0
  6  7  1  0  0  0
  7  8  1  0  0  0
  8  9  1  0  0  0
  9 10  1  0  0  0
 10 11  1  0  0  0
M  END
> <minimizedAffinity>
-6.80826

> <CNNscore>
0.7427206635

> <CNNaffinity>
6.5671944618

> <CNN_VS>
4.8775911331

> <CNNaffinity_variance>
0.5202731490

$$$$
/media/chris/experiments/cd1a-new-docking/inputs/ligands/4x6d_1_ligand.pdb


 21 20  0  0  0  0  0  0  0  0999 V2000
  -45.4601   58.0538   65.8793 C   0  0  0  0  0  0  0  0  0  0  0  0
  -46.2177   59.0077   64.9894 C   0  0  0  0  0  0  0  0  0  0  0  0
  -46.6455   60.3129   65.5111 C   0  0  0  0  0  0  0  0  0  0  0  0
  -48.0708   60.5193   65.9732 C   0  0  0  0  0  0  0  0  0  0  0  0
  -48.8594   59.2158   65.8538 C   0  0  0  0  0  0  0  0  0  0  0  0
  -50.3326   59.4327   65.5186 C   0  0  0  0  0  0  0  0  0  0  0  0
  -50.5135   60.5052   64.4412 C   0  0  0  0  0  0  0  0  0  0  0  0
  -51.1745   60.0150   63.1472 C   0  0  0  0  0  0  0  0  0  0  0  0
  -50.6609   58.6329   62.7223 C   0  0  0  0  0  0  0  0  0  0  0  0
  -49.4074   58.7127   61.8471 C   0  0  0  0  0  0  0  0  0  0  0  0
  -49.3446   59.9807   60.9871 C   0  0  0  0  0  0  0  0  0  0  0  0
  -44.0423   57.9526   65.3402 C   0  0  0  0  0  0  0  0  0  0  0  0
  -43.0076   58.1992   66.4237 C   0  0  0  0  0  0  0  0  0  0  0  0
  -42.5840   59.6646   66.4564 C   0  0  0  0  0  0  0  0  0  0  0  0
  -42.3896   60.1863   65.0396 C   0  0  0  0  0  0  0  0  0  0  0  0
  -41.1599   59.5660   64.3951 C   0  0  0  0  0  0  0  0  0  0  0  0
  -40.0531   59.3464   65.4214 C   0  0  0  0  0  0  0  0  0  0  0  0
  -39.0566   60.4871   65.3495 C   0  0  0  0  0  0  0  0  0  0  0  0
  -38.3670   60.7871   66.3576 O   0  0  0  0  0  0  0  0  0  0  0  0
  -38.9157   61.1432   64.2852 O   0  0  0  0  0  0  0  0  0  0  0  0
  -39.4258   60.9258   63.5298 H   0  0  0  0  0  0  0  0  0  0  0  0
 18 19  2  0  0  0
 18 17  1  0  0  0
 18 20  1  0  0  0
 17 16  1  0  0  0
 20 21  1  0  0  0
 16 15  1  0  0  0
 15 14  1  0  0  0
 14 13  1  0  0  0
 13 12  1  0  0  0
 12  1  1  0  0  0
  1  2  1  0  0  0
  2  3  1  0  0  0
  3  4  1  0  0  0
  4  5  1  0  0  0
  5  6  1  0  0  0
  6  7  1  0  0  0
  7  8  1  0  0  0
  8  9  1  0  0  0
  9 10  1  0  0  0
 10 11  1  0  0  0
M  END
> <minimizedAffinity>
-6.33757

> <CNNscore>
0.6620051265

> <CNNaffinity>
6.2905859947

> <CNN_VS>
4.1644001007

> <CNNaffinity_variance>
0.2914366126

$$$$
/media/chris/experiments/cd1a-new-docking/inputs/ligands/4x6d_1_ligand.pdb


 21 20  0  0  0  0  0  0  0  0999 V2000
  -44.4545   60.1799   65.1832 C   0  0  0  0  0  0  0  0  0  0  0  0
  -44.5432   59.4341   66.4915 C   0  0  0  0  0  0  0  0  0  0  0  0
  -45.8549   59.0319   67.0177 C   0  0  0  0  0  0  0  0  0  0  0  0
  -46.8267   58.2716   66.1432 C   0  0  0  0  0  0  0  0  0  0  0  0
  -47.9469   59.1967   65.6691 C   0  0  0  0  0  0  0  0  0  0  0  0
  -49.3031   58.5022   65.5796 C   0  0  0  0  0  0  0  0  0  0  0  0
  -50.4555   59.5096   65.6123 C   0  0  0  0  0  0  0  0  0  0  0  0
  -50.4759   60.5048   64.4459 C   0  0  0  0  0  0  0  0  0  0  0  0
  -51.1441   59.9179   63.1955 C   0  0  0  0  0  0  0  0  0  0  0  0
  -50.1340   59.3245   62.2100 C   0  0  0  0  0  0  0  0  0  0  0  0
  -49.6161   60.3393   61.1837 C   0  0  0  0  0  0  0  0  0  0  0  0
  -43.1018   59.8628   64.5661 C   0  0  0  0  0  0  0  0  0  0  0  0
  -42.0177   59.7297   65.6207 C   0  0  0  0  0  0  0  0  0  0  0  0
  -41.0319   58.6227   65.2595 C   0  0  0  0  0  0  0  0  0  0  0  0
  -39.7681   59.2213   64.6578 C   0  0  0  0  0  0  0  0  0  0  0  0
  -38.6483   58.1938   64.6105 C   0  0  0  0  0  0  0  0  0  0  0  0
  -38.1458   57.9936   63.1844 C   0  0  0  0  0  0  0  0  0  0  0  0
  -36.6297   57.9681   63.1763 C   0  0  0  0  0  0  0  0  0  0  0  0
  -36.0012   57.4956   64.1578 O   0  0  0  0  0  0  0  0  0  0  0  0
  -35.9906   58.4224   62.1923 O   0  0  0  0  0  0  0  0  0  0  0  0
  -36.4515   58.7761   61.4571 H   0  0  0  0  0  0  0  0  0  0  0  0
 18 19  2  0  0  0
 18 17  1  0  0  0
 18 20  1  0  0  0
 17 16  1  0  0  0
 20 21  1  0  0  0
 16 15  1  0  0  0
 15 14  1  0  0  0
 14 13  1  0  0  0
 13 12  1  0  0  0
 12  1  1  0  0  0
  1  2  1  0  0  0
  2  3  1  0  0  0
  3  4  1  0  0  0
  4  5  1  0  0  0
  5  6  1  0  0  0
  6  7  1  0  0  0
  7  8  1  0  0  0
  8  9  1  0  0  0
  9 10  1  0  0  0
 10 11  1  0  0  0
M  END
> <minimizedAffinity>
-6.45489

> <CNNscore>
0.6284977794

> <CNNaffinity>
6.1971201897

> <CNN_VS>
3.8948762417

> <CNNaffinity_variance>
0.3361440599

$$$$
/media/chris/experiments/cd1a-new-docking/inputs/ligands/4x6d_1_ligand.pdb


 21 20  0  0  0  0  0  0  0  0999 V2000
  -42.3015   59.2553   66.8135 C   0  0  0  0  0  0  0  0  0  0  0  0
  -43.5033   58.5897   66.1902 C   0  0  0  0  0  0  0  0  0  0  0  0
  -44.8168   59.2454   66.2503 C   0  0  0  0  0  0  0  0  0  0  0  0
  -45.2067   60.2685   65.2069 C   0  0  0  0  0  0  0  0  0  0  0  0
  -46.7267   60.4167   65.1536 C   0  0  0  0  0  0  0  0  0  0  0  0
  -47.4341   59.1725   64.6235 C   0  0  0  0  0  0  0  0  0  0  0  0
  -48.4351   58.6170   65.6402 C   0  0  0  0  0  0  0  0  0  0  0  0
  -49.9075   58.8940   65.3136 C   0  0  0  0  0  0  0  0  0  0  0  0
  -50.0731   60.0601   64.3302 C   0  0  0  0  0  0  0  0  0  0  0  0
  -51.1636   59.8022   63.2872 C   0  0  0  0  0  0  0  0  0  0  0  0
  -50.8358   58.6444   62.3367 C   0  0  0  0  0  0  0  0  0  0  0  0
  -41.3796   59.6862   65.6841 C   0  0  0  0  0  0  0  0  0  0  0  0
  -40.6265   58.5092   65.0902 C   0  0  0  0  0  0  0  0  0  0  0  0
  -39.4124   58.9782   64.2940 C   0  0  0  0  0  0  0  0  0  0  0  0
  -38.3257   57.9124   64.3177 C   0  0  0  0  0  0  0  0  0  0  0  0
  -36.9827   58.5128   64.7024 C   0  0  0  0  0  0  0  0  0  0  0  0
  -37.0898   60.0224   64.8929 C   0  0  0  0  0  0  0  0  0  0  0  0
  -36.0537   60.7201   64.0334 C   0  0  0  0  0  0  0  0  0  0  0  0
  -36.1470   61.9541   63.8093 O   0  0  0  0  0  0  0  0  0  0  0  0
  -35.0979   60.0708   63.5354 O   0  0  0  0  0  0  0  0  0  0  0  0
  -35.0214   59.1511   63.6976 H   0  0  0  0  0  0  0  0  0  0  0  0
 18 19  2  0  0  0
 18 17  1  0  0  0
 18 20  1  0  0  0
 17 16  1  0  0  0
 20 21  1  0  0  0
 16 15  1  0  0  0
 15 14  1  0  0  0
 14 13  1  0  0  0
 13 12  1  0  0  0
 12  1  1  0  0  0
  1  2  1  0  0  0
  2  3  1  0  0  0
  3  4  1  0  0  0
  4  5  1  0  0  0
  5  6  1  0  0  0
  6  7  1  0  0  0
  7  8  1  0  0  0
  8  9  1  0  0  0
  9 10  1  0  0  0
 10 11  1  0  0  0
M  END
> <minimizedAffinity>
-6.42465

> <CNNscore>
0.6251205206

> <CNNaffinity>
6.1875281334

> <CNN_VS>
3.8679509163

> <CNNaffinity_variance>
0.2530125082

$$$$
/media/chris/experiments/cd1a-new-docking/inputs/ligands/4x6d_1_ligand.pdb


 21 20  0  0  0  0  0  0  0  0999 V2000
  -39.9343   59.9031   64.4968 C   0  0  0  0  0  0  0  0  0  0  0  0
  -39.1536   58.6629   64.8550 C   0  0  0  0  0  0  0  0  0  0  0  0
  -37.9529   58.3061   64.0870 C   0  0  0  0  0  0  0  0  0  0  0  0
  -38.0827   57.6522   62.7294 C   0  0  0  0  0  0  0  0  0  0  0  0
  -37.7470   58.6543   61.6255 C   0  0  0  0  0  0  0  0  0  0  0  0
  -37.0889   58.0101   60.4083 C   0  0  0  0  0  0  0  0  0  0  0  0
  -36.4675   56.6544   60.7549 C   0  0  0  0  0  0  0  0  0  0  0  0
  -35.5396   56.0761   59.6798 C   0  0  0  0  0  0  0  0  0  0  0  0
  -35.8241   56.6647   58.2916 C   0  0  0  0  0  0  0  0  0  0  0  0
  -34.6629   57.5080   57.7589 C   0  0  0  0  0  0  0  0  0  0  0  0
  -33.3022   56.8096   57.8691 C   0  0  0  0  0  0  0  0  0  0  0  0
  -41.2893   59.8043   65.1788 C   0  0  0  0  0  0  0  0  0  0  0  0
  -41.5657   58.3994   65.6840 C   0  0  0  0  0  0  0  0  0  0  0  0
  -42.8535   58.3519   66.5008 C   0  0  0  0  0  0  0  0  0  0  0  0
  -43.8760   57.4556   65.8165 C   0  0  0  0  0  0  0  0  0  0  0  0
  -45.2139   57.5071   66.5374 C   0  0  0  0  0  0  0  0  0  0  0  0
  -45.6028   58.9433   66.8724 C   0  0  0  0  0  0  0  0  0  0  0  0
  -47.0710   59.1603   66.5614 C   0  0  0  0  0  0  0  0  0  0  0  0
  -47.7286   58.2684   65.9666 O   0  0  0  0  0  0  0  0  0  0  0  0
  -47.6398   60.2331   66.8911 O   0  0  0  0  0  0  0  0  0  0  0  0
  -47.1568   60.9025   67.3345 H   0  0  0  0  0  0  0  0  0  0  0  0
 18 19  2  0  0  0
 18 17  1  0  0  0
 18 20  1  0  0  0
 17 16  1  0  0  0
 20 21  1  0  0  0
 16 15  1  0  0  0
 15 14  1  0  0  0
 14 13  1  0  0  0
 13 12  1  0  0  0
 12  1  1  0  0  0
  1  2  1  0  0  0
  2  3  1  0  0  0
  3  4  1  0  0  0
  4  5  1  0  0  0
  5  6  1  0  0  0
  6  7  1  0  0  0
  7  8  1  0  0  0
  8  9  1  0  0  0
  9 10  1  0  0  0
 10 11  1  0  0  0
M  END
> <minimizedAffinity>
-6.48741

> <CNNscore>
0.6121075749

> <CNNaffinity>
5.8876295090

> <CNN_VS>
3.6038625240

> <CNNaffinity_variance>
0.2184072286

$$$$
