/media/chris/experiments/cd1a-new-docking/inputs/ligands/4x6d_1_ligand.pdb


 21 20  0  0  0  0  0  0  0  0999 V2000
  -45.4120   60.2816   65.1583 C   0  0  0  0  0  0  0  0  0  0  0  0
  -46.8797   60.6304   65.1647 C   0  0  0  0  0  0  0  0  0  0  0  0
  -47.8446   59.7498   64.4922 C   0  0  0  0  0  0  0  0  0  0  0  0
  -48.8133   58.9190   65.3040 C   0  0  0  0  0  0  0  0  0  0  0  0
  -50.0313   58.5499   64.4580 C   0  0  0  0  0  0  0  0  0  0  0  0
  -49.9108   58.9959   63.0033 C   0  0  0  0  0  0  0  0  0  0  0  0
  -50.7280   58.0995   62.0693 C   0  0  0  0  0  0  0  0  0  0  0  0
  -50.1249   57.9022   60.6732 C   0  0  0  0  0  0  0  0  0  0  0  0
  -48.5953   58.0223   60.6810 C   0  0  0  0  0  0  0  0  0  0  0  0
  -48.0200   58.3255   59.2951 C   0  0  0  0  0  0  0  0  0  0  0  0
  -47.1491   57.1937   58.7363 C   0  0  0  0  0  0  0  0  0  0  0  0
  -45.2649   58.9078   65.7922 C   0  0  0  0  0  0  0  0  0  0  0  0
  -44.4820   57.9573   64.9040 C   0  0  0  0  0  0  0  0  0  0  0  0
  -42.9798   58.1143   65.1198 C   0  0  0  0  0  0  0  0  0  0  0  0
  -42.6700   58.2032   66.6076 C   0  0  0  0  0  0  0  0  0  0  0  0
  -41.7429   59.3721   66.9015 C   0  0  0  0  0  0  0  0  0  0  0  0
  -40.9688   59.7869   65.6545 C   0  0  0  0  0  0  0  0  0  0  0  0
  -40.2121   61.0723   65.9274 C   0  0  0  0  0  0  0  0  0  0  0  0
  -40.8244   62.1704   65.9589 O   0  0  0  0  0  0  0  0  0  0  0  0
  -38.9688   61.0507   66.1194 O   0  0  0  0  0  0  0  0  0  0  0  0
  -38.5055   60.2365   66.0976 H   0  0  0  0  0  0  0  0  0  0  0  0
 18 19  2  0  0  0
 18 17  1  0  0  0
 18 20  1  0  0  0
 17 16  1  0  0  0
 20 21  1  0  0  0
 16 15  1  0  0  0
 15 14  1  0  0  0
 14 13  1  0  0  0
 13 12  1  0  0  0
 12  1  1  0  0  0
  1  2  1  0  0  0
  2  3  1  0  0  0
  3  4  1  0  0  0
  4  5  1  0  0  0
  5  6  1  0  0  0
  6  7  1  0  0  0
  7  8  1  0  0  0
  8  9  1  0  0  0
  9 10  1  0  0  0
 10 11  1  0  0  0
M  END
> <minimizedAffinity>
-6.88037

> <CNNscore>
0.8377269506

> <CNNaffinity>
6.8535394669

> <CNN_VS>
5.7413945198

> <CNNaffinity_variance>
0.4823861122

$$$$
/media/chris/experiments/cd1a-new-docking/inputs/ligands/4x6d_1_ligand.pdb


 21 20  0  0  0  0  0  0  0  0999 V2000
  -47.8881   58.3513   64.6125 C   0  0  0  0  0  0  0  0  0  0  0  0
  -49.2198   58.2399   65.3125 C   0  0  0  0  0  0  0  0  0  0  0  0
  -50.0315   59.4436   65.5383 C   0  0  0  0  0  0  0  0  0  0  0  0
  -50.2282   60.4502   64.4266 C   0  0  0  0  0  0  0  0  0  0  0  0
  -51.1771   59.8900   63.3678 C   0  0  0  0  0  0  0  0  0  0  0  0
  -50.4581   59.4052   62.1118 C   0  0  0  0  0  0  0  0  0  0  0  0
  -50.7490   57.9287   61.8302 C   0  0  0  0  0  0  0  0  0  0  0  0
  -50.5483   57.4981   60.3722 C   0  0  0  0  0  0  0  0  0  0  0  0
  -49.3995   56.4927   60.2183 C   0  0  0  0  0  0  0  0  0  0  0  0
  -48.5524   56.7511   58.9695 C   0  0  0  0  0  0  0  0  0  0  0  0
  -47.8233   58.0999   58.9964 C   0  0  0  0  0  0  0  0  0  0  0  0
  -46.9113   58.9913   65.5856 C   0  0  0  0  0  0  0  0  0  0  0  0
  -46.3819   60.3157   65.0650 C   0  0  0  0  0  0  0  0  0  0  0  0
  -44.8689   60.4094   65.2378 C   0  0  0  0  0  0  0  0  0  0  0  0
  -44.3780   59.3095   66.1688 C   0  0  0  0  0  0  0  0  0  0  0  0
  -42.8594   59.2330   66.1676 C   0  0  0  0  0  0  0  0  0  0  0  0
  -42.2497   60.3960   66.9436 C   0  0  0  0  0  0  0  0  0  0  0  0
  -40.9699   60.8464   66.2664 C   0  0  0  0  0  0  0  0  0  0  0  0
  -40.1998   59.9995   65.7457 O   0  0  0  0  0  0  0  0  0  0  0  0
  -40.6674   62.0671   66.2245 O   0  0  0  0  0  0  0  0  0  0  0  0
  -41.2361   62.7041   66.6101 H   0  0  0  0  0  0  0  0  0  0  0  0
 18 19  2  0  0  0
 18 17  1  0  0  0
 18 20  1  0  0  0
 17 16  1  0  0  0
 20 21  1  0  0  0
 16 15  1  0  0  0
 15 14  1  0  0  0
 14 13  1  0  0  0
 13 12  1  0  0  0
 12  1  1  0  0  0
  1  2  1  0  0  0
  2  3  1  0  0  0
  3  4  1  0  0  0
  4  5  1  0  0  0
  5  6  1  0  0  0
  6  7  1  0  0  0
  7  8  1  0  0  0
  8  9  1  0  0  0
  9 10  1  0  0  0
 10 11  1  0  0  0
M  END
> <minimizedAffinity>
-6.99721

> <CNNscore>
0.7803308368

> <CNNaffinity>
6.6227111816

> <CNN_VS>
5.1679058075

> <CNNaffinity_variance>
0.5882274508

$$$$
/media/chris/experiments/cd1a-new-docking/inputs/ligands/4x6d_1_ligand.pdb


 21 20  0  0  0  0  0  0  0  0999 V2000
  -46.9476   60.5518   65.1304 C   0  0  0  0  0  0  0  0  0  0  0  0
  -48.2069   61.2454   64.6736 C   0  0  0  0  0  0  0  0  0  0  0  0
  -49.0740   60.6060   63.6745 C   0  0  0  0  0  0  0  0  0  0  0  0
  -50.5478   60.4141   63.9549 C   0  0  0  0  0  0  0  0  0  0  0  0
  -51.1701   59.4931   62.9062 C   0  0  0  0  0  0  0  0  0  0  0  0
  -50.2324   58.3772   62.4533 C   0  0  0  0  0  0  0  0  0  0  0  0
  -50.8039   57.6113   61.2572 C   0  0  0  0  0  0  0  0  0  0  0  0
  -50.1110   57.8944   59.9188 C   0  0  0  0  0  0  0  0  0  0  0  0
  -48.6624   58.3646   60.1049 C   0  0  0  0  0  0  0  0  0  0  0  0
  -47.7190   57.8072   59.0358 C   0  0  0  0  0  0  0  0  0  0  0  0
  -47.8262   56.2874   58.8615 C   0  0  0  0  0  0  0  0  0  0  0  0
  -47.3420   59.5404   66.1945 C   0  0  0  0  0  0  0  0  0  0  0  0
  -46.1284   58.9561   66.8954 C   0  0  0  0  0  0  0  0  0  0  0  0
  -44.8488   59.6651   66.4622 C   0  0  0  0  0  0  0  0  0  0  0  0
  -43.7652   58.6441   66.1442 C   0  0  0  0  0  0  0  0  0  0  0  0
  -43.0862   58.9651   64.8221 C   0  0  0  0  0  0  0  0  0  0  0  0
  -43.3122   60.4209   64.4271 C   0  0  0  0  0  0  0  0  0  0  0  0
  -42.2217   60.8659   63.4722 C   0  0  0  0  0  0  0  0  0  0  0  0
  -42.5163   61.5159   62.4367 O   0  0  0  0  0  0  0  0  0  0  0  0
  -41.0176   60.5851   63.7056 O   0  0  0  0  0  0  0  0  0  0  0  0
  -40.7901   60.1012   64.4750 H   0  0  0  0  0  0  0  0  0  0  0  0
 18 19  2  0  0  0
 18 17  1  0  0  0
 18 20  1  0  0  0
 17 16  1  0  0  0
 20 21  1  0  0  0
 16 15  1  0  0  0
 15 14  1  0  0  0
 14 13  1  0  0  0
 13 12  1  0  0  0
 12  1  1  0  0  0
  1  2  1  0  0  0
  2  3  1  0  0  0
  3  4  1  0  0  0
  4  5  1  0  0  0
  5  6  1  0  0  0
  6  7  1  0  0  0
  7  8  1  0  0  0
  8  9  1  0  0  0
  9 10  1  0  0  0
 10 11  1  0  0  0
M  END
> <minimizedAffinity>
-6.82461

> <CNNscore>
0.7388811111

> <CNNaffinity>
6.4204316139

> <CNN_VS>
4.7439355850

> <CNNaffinity_variance>
0.3117430508

$$$$
/media/chris/experiments/cd1a-new-docking/inputs/ligands/4x6d_1_ligand.pdb


 21 20  0  0  0  0  0  0  0  0999 V2000
  -46.2206   60.2413   65.1922 C   0  0  0  0  0  0  0  0  0  0  0  0
  -47.2922   59.2439   64.8281 C   0  0  0  0  0  0  0  0  0  0  0  0
  -48.2621   58.8081   65.8422 C   0  0  0  0  0  0  0  0  0  0  0  0
  -49.6881   58.4938   65.4481 C   0  0  0  0  0  0  0  0  0  0  0  0
  -50.4681   59.7862   65.2103 C   0  0  0  0  0  0  0  0  0  0  0  0
  -50.8812   59.9802   63.7539 C   0  0  0  0  0  0  0  0  0  0  0  0
  -49.7792   60.6658   62.9418 C   0  0  0  0  0  0  0  0  0  0  0  0
  -49.6532   60.1858   61.4909 C   0  0  0  0  0  0  0  0  0  0  0  0
  -49.4839   58.6637   61.3972 C   0  0  0  0  0  0  0  0  0  0  0  0
  -48.5396   58.2433   60.2679 C   0  0  0  0  0  0  0  0  0  0  0  0
  -49.2453   57.4939   59.1312 C   0  0  0  0  0  0  0  0  0  0  0  0
  -45.1538   59.4998   65.9815 C   0  0  0  0  0  0  0  0  0  0  0  0
  -43.7899   60.1512   65.8373 C   0  0  0  0  0  0  0  0  0  0  0  0
  -42.8630   59.7450   66.9790 C   0  0  0  0  0  0  0  0  0  0  0  0
  -41.8405   58.7293   66.4887 C   0  0  0  0  0  0  0  0  0  0  0  0
  -41.1260   59.2336   65.2447 C   0  0  0  0  0  0  0  0  0  0  0  0
  -39.6156   59.2690   65.4545 C   0  0  0  0  0  0  0  0  0  0  0  0
  -39.2005   60.6426   65.9448 C   0  0  0  0  0  0  0  0  0  0  0  0
  -38.0147   60.8510   66.3082 O   0  0  0  0  0  0  0  0  0  0  0  0
  -40.0379   61.5803   65.9959 O   0  0  0  0  0  0  0  0  0  0  0  0
  -40.9232   61.4328   65.7268 H   0  0  0  0  0  0  0  0  0  0  0  0
 18 19  2  0  0  0
 18 17  1  0  0  0
 18 20  1  0  0  0
 17 16  1  0  0  0
 20 21  1  0  0  0
 16 15  1  0  0  0
 15 14  1  0  0  0
 14 13  1  0  0  0
 13 12  1  0  0  0
 12  1  1  0  0  0
  1  2  1  0  0  0
  2  3  1  0  0  0
  3  4  1  0  0  0
  4  5  1  0  0  0
  5  6  1  0  0  0
  6  7  1  0  0  0
  7  8  1  0  0  0
  8  9  1  0  0  0
  9 10  1  0  0  0
 10 11  1  0  0  0
M  END
> <minimizedAffinity>
-6.83673

> <CNNscore>
0.6677095890

> <CNNaffinity>
6.2970271111

> <CNN_VS>
4.2045855522

> <CNNaffinity_variance>
0.2584972978

$$$$
/media/chris/experiments/cd1a-new-docking/inputs/ligands/4x6d_1_ligand.pdb


 21 20  0  0  0  0  0  0  0  0999 V2000
  -44.0105   57.9594   64.7139 C   0  0  0  0  0  0  0  0  0  0  0  0
  -45.5077   57.9304   64.5319 C   0  0  0  0  0  0  0  0  0  0  0  0
  -46.3464   58.9341   65.2013 C   0  0  0  0  0  0  0  0  0  0  0  0
  -47.4727   58.5011   66.1131 C   0  0  0  0  0  0  0  0  0  0  0  0
  -48.6597   58.0048   65.2885 C   0  0  0  0  0  0  0  0  0  0  0  0
  -49.9658   58.7200   65.6235 C   0  0  0  0  0  0  0  0  0  0  0  0
  -50.0620   60.0767   64.9206 C   0  0  0  0  0  0  0  0  0  0  0  0
  -51.1772   60.1834   63.8735 C   0  0  0  0  0  0  0  0  0  0  0  0
  -50.9317   59.2633   62.6704 C   0  0  0  0  0  0  0  0  0  0  0  0
  -49.6580   59.6240   61.9016 C   0  0  0  0  0  0  0  0  0  0  0  0
  -48.9032   58.4015   61.3657 C   0  0  0  0  0  0  0  0  0  0  0  0
  -43.6346   59.3511   65.1963 C   0  0  0  0  0  0  0  0  0  0  0  0
  -42.2359   59.7431   64.7544 C   0  0  0  0  0  0  0  0  0  0  0  0
  -41.2077   58.7081   65.2010 C   0  0  0  0  0  0  0  0  0  0  0  0
  -39.8344   59.0597   64.6461 C   0  0  0  0  0  0  0  0  0  0  0  0
  -39.8789   60.3673   63.8715 C   0  0  0  0  0  0  0  0  0  0  0  0
  -39.1951   60.2266   62.5154 C   0  0  0  0  0  0  0  0  0  0  0  0
  -37.6920   60.3265   62.6887 C   0  0  0  0  0  0  0  0  0  0  0  0
  -37.1901   61.3111   63.2889 O   0  0  0  0  0  0  0  0  0  0  0  0
  -36.9374   59.4299   62.2307 O   0  0  0  0  0  0  0  0  0  0  0  0
  -37.3037   58.6932   61.7824 H   0  0  0  0  0  0  0  0  0  0  0  0
 18 19  2  0  0  0
 18 17  1  0  0  0
 18 20  1  0  0  0
 17 16  1  0  0  0
 20 21  1  0  0  0
 16 15  1  0  0  0
 15 14  1  0  0  0
 14 13  1  0  0  0
 13 12  1  0  0  0
 12  1  1  0  0  0
  1  2  1  0  0  0
  2  3  1  0  0  0
  3  4  1  0  0  0
  4  5  1  0  0  0
  5  6  1  0  0  0
  6  7  1  0  0  0
  7  8  1  0  0  0
  8  9  1  0  0  0
  9 10  1  0  0  0
 10 11  1  0  0  0
M  END
> <minimizedAffinity>
-6.38528

> <CNNscore>
0.6517229676

> <CNNaffinity>
6.3995261192

> <CNN_VS>
4.1707181931

> <CNNaffinity_variance>
0.3696158230

$$$$
/media/chris/experiments/cd1a-new-docking/inputs/ligands/4x6d_1_ligand.pdb


 21 20  0  0  0  0  0  0  0  0999 V2000
  -41.8971   60.8251   66.8740 C   0  0  0  0  0  0  0  0  0  0  0  0
  -42.8838   59.8368   66.3034 C   0  0  0  0  0  0  0  0  0  0  0  0
  -42.5305   58.4128   66.2227 C   0  0  0  0  0  0  0  0  0  0  0  0
  -43.5423   57.4030   65.7288 C   0  0  0  0  0  0  0  0  0  0  0  0
  -44.9612   57.8906   66.0191 C   0  0  0  0  0  0  0  0  0  0  0  0
  -46.0367   56.8847   65.6181 C   0  0  0  0  0  0  0  0  0  0  0  0
  -47.4439   57.4434   65.8452 C   0  0  0  0  0  0  0  0  0  0  0  0
  -47.7942   58.6734   64.9990 C   0  0  0  0  0  0  0  0  0  0  0  0
  -48.6237   58.3074   63.7611 C   0  0  0  0  0  0  0  0  0  0  0  0
  -50.0545   58.8475   63.8285 C   0  0  0  0  0  0  0  0  0  0  0  0
  -50.8418   58.6506   62.5274 C   0  0  0  0  0  0  0  0  0  0  0  0
  -40.6995   60.8685   65.9388 C   0  0  0  0  0  0  0  0  0  0  0  0
  -41.0345   61.5494   64.6237 C   0  0  0  0  0  0  0  0  0  0  0  0
  -40.5182   60.7400   63.4380 C   0  0  0  0  0  0  0  0  0  0  0  0
  -39.6731   59.5724   63.9280 C   0  0  0  0  0  0  0  0  0  0  0  0
  -38.3019   59.5796   63.2709 C   0  0  0  0  0  0  0  0  0  0  0  0
  -38.2648   58.6456   62.0656 C   0  0  0  0  0  0  0  0  0  0  0  0
  -37.8617   59.4243   60.8285 C   0  0  0  0  0  0  0  0  0  0  0  0
  -37.4041   58.8210   59.8244 O   0  0  0  0  0  0  0  0  0  0  0  0
  -37.9773   60.6769   60.7990 O   0  0  0  0  0  0  0  0  0  0  0  0
  -38.3175   61.1336   61.5431 H   0  0  0  0  0  0  0  0  0  0  0  0
 18 19  2  0  0  0
 18 17  1  0  0  0
 18 20  1  0  0  0
 17 16  1  0  0  0
 20 21  1  0  0  0
 16 15  1  0  0  0
 15 14  1  0  0  0
 14 13  1  0  0  0
 13 12  1  0  0  0
 12  1  1  0  0  0
  1  2  1  0  0  0
  2  3  1  0  0  0
  3  4  1  0  0  0
  4  5  1  0  0  0
  5  6  1  0  0  0
  6  7  1  0  0  0
  7  8  1  0  0  0
  8  9  1  0  0  0
  9 10  1  0  0  0
 10 11  1  0  0  0
M  END
> <minimizedAffinity>
-6.17508

> <CNNscore>
0.6463075280

> <CNNaffinity>
6.2861027718

> <CNN_VS>
4.0627555847

> <CNNaffinity_variance>
0.5254433155

$$$$
/media/chris/experiments/cd1a-new-docking/inputs/ligands/4x6d_1_ligand.pdb


 21 20  0  0  0  0  0  0  0  0999 V2000
  -41.4069   60.6537   63.8017 C   0  0  0  0  0  0  0  0  0  0  0  0
  -42.8840   60.5954   64.1028 C   0  0  0  0  0  0  0  0  0  0  0  0
  -43.3727   59.7686   65.2148 C   0  0  0  0  0  0  0  0  0  0  0  0
  -44.7731   59.1980   65.1826 C   0  0  0  0  0  0  0  0  0  0  0  0
  -45.4448   59.3682   66.5447 C   0  0  0  0  0  0  0  0  0  0  0  0
  -46.5632   58.3599   66.7939 C   0  0  0  0  0  0  0  0  0  0  0  0
  -47.0238   57.6960   65.4935 C   0  0  0  0  0  0  0  0  0  0  0  0
  -48.5164   57.8564   65.1805 C   0  0  0  0  0  0  0  0  0  0  0  0
  -48.7716   58.9238   64.1081 C   0  0  0  0  0  0  0  0  0  0  0  0
  -49.6938   58.4291   62.9907 C   0  0  0  0  0  0  0  0  0  0  0  0
  -50.9976   59.2285   62.8785 C   0  0  0  0  0  0  0  0  0  0  0  0
  -40.6827   60.9193   65.1116 C   0  0  0  0  0  0  0  0  0  0  0  0
  -39.7132   59.8030   65.4570 C   0  0  0  0  0  0  0  0  0  0  0  0
  -39.7316   58.7097   64.3930 C   0  0  0  0  0  0  0  0  0  0  0  0
  -38.3167   58.2184   64.1211 C   0  0  0  0  0  0  0  0  0  0  0  0
  -38.0780   58.0454   62.6294 C   0  0  0  0  0  0  0  0  0  0  0  0
  -37.4671   59.3035   62.0208 C   0  0  0  0  0  0  0  0  0  0  0  0
  -38.1345   59.6040   60.6928 C   0  0  0  0  0  0  0  0  0  0  0  0
  -38.9949   60.5175   60.6114 O   0  0  0  0  0  0  0  0  0  0  0  0
  -37.8366   58.9405   59.6660 O   0  0  0  0  0  0  0  0  0  0  0  0
  -37.1964   58.2583   59.7185 H   0  0  0  0  0  0  0  0  0  0  0  0
 18 19  2  0  0  0
 18 17  1  0  0  0
 18 20  1  0  0  0
 17 16  1  0  0  0
 20 21  1  0  0  0
 16 15  1  0  0  0
 15 14  1  0  0  0
 14 13  1  0  0  0
 13 12  1  0  0  0
 12  1  1  0  0  0
  1  2  1  0  0  0
  2  3  1  0  0  0
  3  4  1  0  0  0
  4  5  1  0  0  0
  5  6  1  0  0  0
  6  7  1  0  0  0
  7  8  1  0  0  0
  8  9  1  0  0  0
  9 10  1  0  0  0
 10 11  1  0  0  0
M  END
> <minimizedAffinity>
-6.38977

> <CNNscore>
0.6336860061

> <CNNaffinity>
6.2474079132

> <CNN_VS>
3.9588949680

> <CNNaffinity_variance>
0.5198413730

$$$$
/media/chris/experiments/cd1a-new-docking/inputs/ligands/4x6d_1_ligand.pdb


 21 20  0  0  0  0  0  0  0  0999 V2000
  -43.3522   59.7111   64.9104 C   0  0  0  0  0  0  0  0  0  0  0  0
  -44.2140   58.4836   64.7477 C   0  0  0  0  0  0  0  0  0  0  0  0
  -45.3344   58.2481   65.6687 C   0  0  0  0  0  0  0  0  0  0  0  0
  -46.1031   56.9466   65.6172 C   0  0  0  0  0  0  0  0  0  0  0  0
  -47.6026   57.2127   65.7437 C   0  0  0  0  0  0  0  0  0  0  0  0
  -48.1046   58.2918   64.7882 C   0  0  0  0  0  0  0  0  0  0  0  0
  -48.8088   59.4256   65.5382 C   0  0  0  0  0  0  0  0  0  0  0  0
  -50.3408   59.3721   65.4980 C   0  0  0  0  0  0  0  0  0  0  0  0
  -50.9289   60.3722   64.4939 C   0  0  0  0  0  0  0  0  0  0  0  0
  -51.1730   59.7510   63.1161 C   0  0  0  0  0  0  0  0  0  0  0  0
  -50.0683   60.0678   62.1008 C   0  0  0  0  0  0  0  0  0  0  0  0
  -43.1244   59.9167   66.3993 C   0  0  0  0  0  0  0  0  0  0  0  0
  -41.6694   59.7109   66.7814 C   0  0  0  0  0  0  0  0  0  0  0  0
  -40.8411   59.2731   65.5772 C   0  0  0  0  0  0  0  0  0  0  0  0
  -39.6892   60.2425   65.3524 C   0  0  0  0  0  0  0  0  0  0  0  0
  -38.3553   59.5125   65.3540 C   0  0  0  0  0  0  0  0  0  0  0  0
  -38.4480   58.1963   64.5889 C   0  0  0  0  0  0  0  0  0  0  0  0
  -37.6256   58.2856   63.3181 C   0  0  0  0  0  0  0  0  0  0  0  0
  -38.0715   57.8091   62.2431 O   0  0  0  0  0  0  0  0  0  0  0  0
  -36.4920   58.8315   63.3305 O   0  0  0  0  0  0  0  0  0  0  0  0
  -36.1529   59.1889   64.1274 H   0  0  0  0  0  0  0  0  0  0  0  0
 18 19  2  0  0  0
 18 17  1  0  0  0
 18 20  1  0  0  0
 17 16  1  0  0  0
 20 21  1  0  0  0
 16 15  1  0  0  0
 15 14  1  0  0  0
 14 13  1  0  0  0
 13 12  1  0  0  0
 12  1  1  0  0  0
  1  2  1  0  0  0
  2  3  1  0  0  0
  3  4  1  0  0  0
  4  5  1  0  0  0
  5  6  1  0  0  0
  6  7  1  0  0  0
  7  8  1  0  0  0
  8  9  1  0  0  0
  9 10  1  0  0  0
 10 11  1  0  0  0
M  END
> <minimizedAffinity>
-6.25208

> <CNNscore>
0.6154307127

> <CNNaffinity>
6.2683343887

> <CNN_VS>
3.8577253819

> <CNNaffinity_variance>
0.4129792750

$$$$
/media/chris/experiments/cd1a-new-docking/inputs/ligands/4x6d_1_ligand.pdb


 21 20  0  0  0  0  0  0  0  0999 V2000
  -44.1549   60.0692   65.4049 C   0  0  0  0  0  0  0  0  0  0  0  0
  -45.5941   59.6426   65.2553 C   0  0  0  0  0  0  0  0  0  0  0  0
  -46.5266   59.8046   66.3792 C   0  0  0  0  0  0  0  0  0  0  0  0
  -47.8448   60.5187   66.1794 C   0  0  0  0  0  0  0  0  0  0  0  0
  -47.9204   61.1050   64.7702 C   0  0  0  0  0  0  0  0  0  0  0  0
  -49.3054   60.9816   64.1408 C   0  0  0  0  0  0  0  0  0  0  0  0
  -49.2466   60.2785   62.7821 C   0  0  0  0  0  0  0  0  0  0  0  0
  -48.8017   58.8118   62.8332 C   0  0  0  0  0  0  0  0  0  0  0  0
  -49.1539   58.0548   61.5458 C   0  0  0  0  0  0  0  0  0  0  0  0
  -48.6582   58.7699   60.2862 C   0  0  0  0  0  0  0  0  0  0  0  0
  -48.3561   57.8166   59.1237 C   0  0  0  0  0  0  0  0  0  0  0  0
  -43.6882   59.6307   66.7836 C   0  0  0  0  0  0  0  0  0  0  0  0
  -42.4307   58.7831   66.7108 C   0  0  0  0  0  0  0  0  0  0  0  0
  -41.9164   58.6840   65.2778 C   0  0  0  0  0  0  0  0  0  0  0  0
  -40.5332   59.3110   65.1722 C   0  0  0  0  0  0  0  0  0  0  0  0
  -39.5056   58.2881   64.7140 C   0  0  0  0  0  0  0  0  0  0  0  0
  -38.6685   58.8290   63.5595 C   0  0  0  0  0  0  0  0  0  0  0  0
  -37.6763   59.8494   64.0825 C   0  0  0  0  0  0  0  0  0  0  0  0
  -37.7638   61.0532   63.7293 O   0  0  0  0  0  0  0  0  0  0  0  0
  -36.7578   59.4997   64.8682 O   0  0  0  0  0  0  0  0  0  0  0  0
  -36.6860   58.6047   65.1360 H   0  0  0  0  0  0  0  0  0  0  0  0
 18 19  2  0  0  0
 18 17  1  0  0  0
 18 20  1  0  0  0
 17 16  1  0  0  0
 20 21  1  0  0  0
 16 15  1  0  0  0
 15 14  1  0  0  0
 14 13  1  0  0  0
 13 12  1  0  0  0
 12  1  1  0  0  0
  1  2  1  0  0  0
  2  3  1  0  0  0
  3  4  1  0  0  0
  4  5  1  0  0  0
  5  6  1  0  0  0
  6  7  1  0  0  0
  7  8  1  0  0  0
  8  9  1  0  0  0
  9 10  1  0  0  0
 10 11  1  0  0  0
M  END
> <minimizedAffinity>
-6.36526

> <CNNscore>
0.5880655050

> <CNNaffinity>
6.2415456772

> <CNN_VS>
3.6704378128

> <CNNaffinity_variance>
0.1424169391

$$$$
