/media/chris/experiments/cd1a-new-docking/inputs/ligands/5j1a_ligand.pdb


 25 25  0  0  0  0  0  0  0  0999 V2000
  -47.5512   60.9507   61.1301 C   0  0  0  0  0  0  0  0  0  0  0  0
  -46.0508   60.6365   61.0340 C   0  0  0  0  0  0  0  0  0  0  0  0
  -45.5987   59.8310   62.2443 C   0  0  0  0  0  0  0  0  0  0  0  0
  -45.0438   60.7799   63.3071 C   0  0  0  0  0  0  0  0  0  0  0  0
  -46.0621   60.9644   64.4321 C   0  0  0  0  0  0  0  0  0  0  0  0
  -46.7772   59.4763   66.5178 C   0  0  0  0  0  0  0  0  0  0  0  0
  -45.6887   60.0044   65.5629 C   0  0  0  0  0  0  0  0  0  0  0  0
  -48.2290   59.9754   66.4568 C   0  0  0  0  0  0  0  0  0  0  0  0
  -49.1321   58.7358   66.3792 C   0  0  0  0  0  0  0  0  0  0  0  0
  -49.6141   58.1571   65.0274 C   0  0  0  0  0  0  0  0  0  0  0  0
  -49.1850   58.7722   63.6809 C   0  0  0  0  0  0  0  0  0  0  0  0
  -51.1777   60.0406   62.7596 C   0  0  0  0  0  0  0  0  0  0  0  0
  -50.4002   58.7223   62.7447 C   0  0  0  0  0  0  0  0  0  0  0  0
  -48.2815   60.8823   59.7637 C   0  0  0  0  0  0  0  0  0  0  0  0
  -49.0044   59.5352   59.5270 C   0  0  0  0  0  0  0  0  0  0  0  0
  -46.4906   58.2183   57.1392 C   0  0  0  0  0  0  0  0  0  0  0  0
  -46.7642   56.8441   57.1506 C   0  0  0  0  0  0  0  0  0  0  0  0
  -47.2431   59.0961   57.9286 C   0  0  0  0  0  0  0  0  0  0  0  0
  -47.7942   56.3721   57.9639 C   0  0  0  0  0  0  0  0  0  0  0  0
  -48.5345   57.2506   58.7533 C   0  0  0  0  0  0  0  0  0  0  0  0
  -48.2550   58.6230   58.7716 C   0  0  0  0  0  0  0  0  0  0  0  0
  -48.1232   55.0587   58.0297 O   0  0  0  0  0  0  0  0  0  0  0  0
  -49.5275   56.7425   59.5390 O   0  0  0  0  0  0  0  0  0  0  0  0
  -47.6529   54.4315   57.5165 H   0  0  0  0  0  0  0  0  0  0  0  0
  -49.7125   55.8241   59.5249 H   0  0  0  0  0  0  0  0  0  0  0  0
 12 13  1  0  0  0
  9 10  2  0  0  0
  9  8  1  0  0  0
  6  7  2  0  0  0
  6  8  1  0  0  0
 10 11  1  0  0  0
  7  5  1  0  0  0
 16 17  2  0  0  0
 16 18  1  0  0  0
 17 19  1  0  0  0
 18 21  2  0  0  0
 13 11  1  0  0  0
  5  4  1  0  0  0
  4  3  1  0  0  0
  3  2  1  0  0  0
  2  1  1  0  0  0
  1 14  1  0  0  0
 14 15  1  0  0  0
 15 21  1  0  0  0
 19 20  2  0  0  0
 19 22  1  0  0  0
 20 21  1  0  0  0
 20 23  1  0  0  0
 22 24  1  0  0  0
 23 25  1  0  0  0
M  END
> <minimizedAffinity>
-8.00148

> <CNNscore>
0.4714044631

> <CNNaffinity>
6.7570304871

> <CNN_VS>
3.1852943897

> <CNNaffinity_variance>
0.1785639524

$$$$
/media/chris/experiments/cd1a-new-docking/inputs/ligands/5j1a_ligand.pdb


 25 25  0  0  0  0  0  0  0  0999 V2000
  -46.8872   56.4481   58.7429 C   0  0  0  0  0  0  0  0  0  0  0  0
  -48.3780   56.8173   58.7588 C   0  0  0  0  0  0  0  0  0  0  0  0
  -49.0854   56.1189   59.9120 C   0  0  0  0  0  0  0  0  0  0  0  0
  -50.1469   57.0518   60.4960 C   0  0  0  0  0  0  0  0  0  0  0  0
  -49.6622   57.6360   61.8228 C   0  0  0  0  0  0  0  0  0  0  0  0
  -50.6492   59.3527   63.5991 C   0  0  0  0  0  0  0  0  0  0  0  0
  -50.5368   58.8485   62.1470 C   0  0  0  0  0  0  0  0  0  0  0  0
  -50.0046   58.6038   64.7756 C   0  0  0  0  0  0  0  0  0  0  0  0
  -49.7247   59.6398   65.8741 C   0  0  0  0  0  0  0  0  0  0  0  0
  -48.4697   60.5448   65.8456 C   0  0  0  0  0  0  0  0  0  0  0  0
  -47.4483   60.4814   64.6933 C   0  0  0  0  0  0  0  0  0  0  0  0
  -46.3508   58.2032   64.5097 C   0  0  0  0  0  0  0  0  0  0  0  0
  -46.2882   59.5893   65.1558 C   0  0  0  0  0  0  0  0  0  0  0  0
  -45.9555   57.6421   59.0767 C   0  0  0  0  0  0  0  0  0  0  0  0
  -45.8629   57.9363   60.5926 C   0  0  0  0  0  0  0  0  0  0  0  0
  -47.4034   61.3076   60.7205 C   0  0  0  0  0  0  0  0  0  0  0  0
  -46.4544   62.0384   61.4477 C   0  0  0  0  0  0  0  0  0  0  0  0
  -47.1913   59.9520   60.4429 C   0  0  0  0  0  0  0  0  0  0  0  0
  -45.3023   61.3883   61.8897 C   0  0  0  0  0  0  0  0  0  0  0  0
  -45.1011   60.0364   61.6165 C   0  0  0  0  0  0  0  0  0  0  0  0
  -46.0532   59.2873   60.9133 C   0  0  0  0  0  0  0  0  0  0  0  0
  -44.3358   62.0243   62.5962 O   0  0  0  0  0  0  0  0  0  0  0  0
  -43.9627   59.4406   62.0757 O   0  0  0  0  0  0  0  0  0  0  0  0
  -44.4282   62.9334   62.8032 H   0  0  0  0  0  0  0  0  0  0  0  0
  -43.3274   59.9439   62.5458 H   0  0  0  0  0  0  0  0  0  0  0  0
 12 13  1  0  0  0
  9 10  2  0  0  0
  9  8  1  0  0  0
  6  7  2  0  0  0
  6  8  1  0  0  0
 10 11  1  0  0  0
  7  5  1  0  0  0
 16 17  2  0  0  0
 16 18  1  0  0  0
 17 19  1  0  0  0
 18 21  2  0  0  0
 13 11  1  0  0  0
  5  4  1  0  0  0
  4  3  1  0  0  0
  3  2  1  0  0  0
  2  1  1  0  0  0
  1 14  1  0  0  0
 14 15  1  0  0  0
 15 21  1  0  0  0
 19 20  2  0  0  0
 19 22  1  0  0  0
 20 21  1  0  0  0
 20 23  1  0  0  0
 22 24  1  0  0  0
 23 25  1  0  0  0
M  END
> <minimizedAffinity>
-7.23029

> <CNNscore>
0.3820410967

> <CNNaffinity>
6.2849340439

> <CNN_VS>
2.4011030197

> <CNNaffinity_variance>
0.2104649097

$$$$
/media/chris/experiments/cd1a-new-docking/inputs/ligands/5j1a_ligand.pdb


 25 25  0  0  0  0  0  0  0  0999 V2000
  -48.6279   60.2391   64.4164 C   0  0  0  0  0  0  0  0  0  0  0  0
  -49.8484   59.7652   63.6134 C   0  0  0  0  0  0  0  0  0  0  0  0
  -49.4076   59.1407   62.2967 C   0  0  0  0  0  0  0  0  0  0  0  0
  -49.8197   57.6685   62.2700 C   0  0  0  0  0  0  0  0  0  0  0  0
  -49.6715   57.1055   60.8566 C   0  0  0  0  0  0  0  0  0  0  0  0
  -49.8127   58.1129   58.3986 C   0  0  0  0  0  0  0  0  0  0  0  0
  -50.2366   58.1387   59.8802 C   0  0  0  0  0  0  0  0  0  0  0  0
  -48.7346   57.1518   57.8744 C   0  0  0  0  0  0  0  0  0  0  0  0
  -47.6290   58.0107   57.2434 C   0  0  0  0  0  0  0  0  0  0  0  0
  -46.2391   58.1714   57.9044 C   0  0  0  0  0  0  0  0  0  0  0  0
  -45.8747   57.4488   59.2160 C   0  0  0  0  0  0  0  0  0  0  0  0
  -46.5651   59.7967   59.8785 C   0  0  0  0  0  0  0  0  0  0  0  0
  -46.2454   58.3845   60.3747 C   0  0  0  0  0  0  0  0  0  0  0  0
  -47.2757   59.8324   63.7752 C   0  0  0  0  0  0  0  0  0  0  0  0
  -46.0489   60.3590   64.5569 C   0  0  0  0  0  0  0  0  0  0  0  0
  -44.6937   62.5333   61.8752 C   0  0  0  0  0  0  0  0  0  0  0  0
  -43.3109   62.3768   62.0389 C   0  0  0  0  0  0  0  0  0  0  0  0
  -45.5866   61.8561   62.7143 C   0  0  0  0  0  0  0  0  0  0  0  0
  -42.8462   61.5393   63.0527 C   0  0  0  0  0  0  0  0  0  0  0  0
  -43.7406   60.8741   63.8897 C   0  0  0  0  0  0  0  0  0  0  0  0
  -45.1246   61.0415   63.7543 C   0  0  0  0  0  0  0  0  0  0  0  0
  -41.5250   61.3326   63.2748 O   0  0  0  0  0  0  0  0  0  0  0  0
  -43.2399   60.0712   64.8728 O   0  0  0  0  0  0  0  0  0  0  0  0
  -40.8871   61.7588   62.7369 H   0  0  0  0  0  0  0  0  0  0  0  0
  -42.3137   59.9609   64.9612 H   0  0  0  0  0  0  0  0  0  0  0  0
 12 13  1  0  0  0
  9 10  2  0  0  0
  9  8  1  0  0  0
  6  7  2  0  0  0
  6  8  1  0  0  0
 10 11  1  0  0  0
  7  5  1  0  0  0
 16 17  2  0  0  0
 16 18  1  0  0  0
 17 19  1  0  0  0
 18 21  2  0  0  0
 13 11  1  0  0  0
  5  4  1  0  0  0
  4  3  1  0  0  0
  3  2  1  0  0  0
  2  1  1  0  0  0
  1 14  1  0  0  0
 14 15  1  0  0  0
 15 21  1  0  0  0
 19 20  2  0  0  0
 19 22  1  0  0  0
 20 21  1  0  0  0
 20 23  1  0  0  0
 22 24  1  0  0  0
 23 25  1  0  0  0
M  END
> <minimizedAffinity>
-7.49091

> <CNNscore>
0.3814298511

> <CNNaffinity>
6.1027059555

> <CNN_VS>
2.3277542591

> <CNNaffinity_variance>
0.2030696869

$$$$
/media/chris/experiments/cd1a-new-docking/inputs/ligands/5j1a_ligand.pdb


 25 25  0  0  0  0  0  0  0  0999 V2000
  -45.5219   57.2723   59.0798 C   0  0  0  0  0  0  0  0  0  0  0  0
  -46.1454   57.7014   57.7434 C   0  0  0  0  0  0  0  0  0  0  0  0
  -47.0943   58.8736   57.9525 C   0  0  0  0  0  0  0  0  0  0  0  0
  -48.5367   58.3958   57.7817 C   0  0  0  0  0  0  0  0  0  0  0  0
  -49.3798   58.8262   58.9819 C   0  0  0  0  0  0  0  0  0  0  0  0
  -50.8434   57.5647   60.8102 C   0  0  0  0  0  0  0  0  0  0  0  0
  -50.2563   57.6398   59.3871 C   0  0  0  0  0  0  0  0  0  0  0  0
  -50.4816   58.5879   61.8978 C   0  0  0  0  0  0  0  0  0  0  0  0
  -49.2558   58.0421   62.6445 C   0  0  0  0  0  0  0  0  0  0  0  0
  -48.7080   58.7186   63.9240 C   0  0  0  0  0  0  0  0  0  0  0  0
  -49.3846   59.9584   64.5407 C   0  0  0  0  0  0  0  0  0  0  0  0
  -50.0441   58.1103   66.1463 C   0  0  0  0  0  0  0  0  0  0  0  0
  -50.4383   59.4585   65.5385 C   0  0  0  0  0  0  0  0  0  0  0  0
  -46.2690   57.8381   60.3155 C   0  0  0  0  0  0  0  0  0  0  0  0
  -45.3162   58.3840   61.4051 C   0  0  0  0  0  0  0  0  0  0  0  0
  -46.7757   61.7934   61.4424 C   0  0  0  0  0  0  0  0  0  0  0  0
  -45.7069   62.5668   61.9146 C   0  0  0  0  0  0  0  0  0  0  0  0
  -46.6294   60.4111   61.2760 C   0  0  0  0  0  0  0  0  0  0  0  0
  -44.5023   61.9324   62.2171 C   0  0  0  0  0  0  0  0  0  0  0  0
  -44.3658   60.5546   62.0566 C   0  0  0  0  0  0  0  0  0  0  0  0
  -45.4336   59.7655   61.6103 C   0  0  0  0  0  0  0  0  0  0  0  0
  -43.4208   62.6090   62.6759 O   0  0  0  0  0  0  0  0  0  0  0  0
  -43.1710   59.9763   62.3727 O   0  0  0  0  0  0  0  0  0  0  0  0
  -43.4662   63.5367   62.7993 H   0  0  0  0  0  0  0  0  0  0  0  0
  -42.4583   60.5064   62.6709 H   0  0  0  0  0  0  0  0  0  0  0  0
 12 13  1  0  0  0
  9 10  2  0  0  0
  9  8  1  0  0  0
  6  7  2  0  0  0
  6  8  1  0  0  0
 10 11  1  0  0  0
  7  5  1  0  0  0
 16 17  2  0  0  0
 16 18  1  0  0  0
 17 19  1  0  0  0
 18 21  2  0  0  0
 13 11  1  0  0  0
  5  4  1  0  0  0
  4  3  1  0  0  0
  3  2  1  0  0  0
  2  1  1  0  0  0
  1 14  1  0  0  0
 14 15  1  0  0  0
 15 21  1  0  0  0
 19 20  2  0  0  0
 19 22  1  0  0  0
 20 21  1  0  0  0
 20 23  1  0  0  0
 22 24  1  0  0  0
 23 25  1  0  0  0
M  END
> <minimizedAffinity>
-7.99846

> <CNNscore>
0.3703218997

> <CNNaffinity>
6.3465409279

> <CNN_VS>
2.3502631187

> <CNNaffinity_variance>
0.0406106636

$$$$
/media/chris/experiments/cd1a-new-docking/inputs/ligands/5j1a_ligand.pdb


 25 25  0  0  0  0  0  0  0  0999 V2000
  -47.6411   58.7858   65.4960 C   0  0  0  0  0  0  0  0  0  0  0  0
  -47.8633   58.2737   64.0651 C   0  0  0  0  0  0  0  0  0  0  0  0
  -49.3492   58.2524   63.7338 C   0  0  0  0  0  0  0  0  0  0  0  0
  -49.7675   59.6183   63.1887 C   0  0  0  0  0  0  0  0  0  0  0  0
  -50.2408   59.4854   61.7413 C   0  0  0  0  0  0  0  0  0  0  0  0
  -50.2650   57.4565   60.0210 C   0  0  0  0  0  0  0  0  0  0  0  0
  -50.4493   57.9978   61.4523 C   0  0  0  0  0  0  0  0  0  0  0  0
  -49.9935   58.3836   58.8262 C   0  0  0  0  0  0  0  0  0  0  0  0
  -48.7418   57.8507   58.1138 C   0  0  0  0  0  0  0  0  0  0  0  0
  -47.3836   58.5890   58.1826 C   0  0  0  0  0  0  0  0  0  0  0  0
  -47.2027   59.8829   59.0003 C   0  0  0  0  0  0  0  0  0  0  0  0
  -45.8858   58.2182   60.3871 C   0  0  0  0  0  0  0  0  0  0  0  0
  -46.7573   59.4762   60.4117 C   0  0  0  0  0  0  0  0  0  0  0  0
  -46.9565   60.1762   65.5510 C   0  0  0  0  0  0  0  0  0  0  0  0
  -45.4964   60.1561   65.0400 C   0  0  0  0  0  0  0  0  0  0  0  0
  -46.1739   62.5385   62.2794 C   0  0  0  0  0  0  0  0  0  0  0  0
  -44.9136   62.6610   61.6794 C   0  0  0  0  0  0  0  0  0  0  0  0
  -46.3511   61.7029   63.3886 C   0  0  0  0  0  0  0  0  0  0  0  0
  -43.8449   61.9394   62.2107 C   0  0  0  0  0  0  0  0  0  0  0  0
  -44.0265   61.1153   63.3200 C   0  0  0  0  0  0  0  0  0  0  0  0
  -45.2747   61.0034   63.9458 C   0  0  0  0  0  0  0  0  0  0  0  0
  -42.5959   62.0009   61.6872 O   0  0  0  0  0  0  0  0  0  0  0  0
  -42.9503   60.4345   63.8100 O   0  0  0  0  0  0  0  0  0  0  0  0
  -42.4267   62.5419   60.9410 H   0  0  0  0  0  0  0  0  0  0  0  0
  -42.1165   60.5111   63.3895 H   0  0  0  0  0  0  0  0  0  0  0  0
 12 13  1  0  0  0
  9 10  2  0  0  0
  9  8  1  0  0  0
  6  7  2  0  0  0
  6  8  1  0  0  0
 10 11  1  0  0  0
  7  5  1  0  0  0
 16 17  2  0  0  0
 16 18  1  0  0  0
 17 19  1  0  0  0
 18 21  2  0  0  0
 13 11  1  0  0  0
  5  4  1  0  0  0
  4  3  1  0  0  0
  3  2  1  0  0  0
  2  1  1  0  0  0
  1 14  1  0  0  0
 14 15  1  0  0  0
 15 21  1  0  0  0
 19 20  2  0  0  0
 19 22  1  0  0  0
 20 21  1  0  0  0
 20 23  1  0  0  0
 22 24  1  0  0  0
 23 25  1  0  0  0
M  END
> <minimizedAffinity>
-7.46585

> <CNNscore>
0.3398602605

> <CNNaffinity>
6.0443673134

> <CNN_VS>
2.0542402267

> <CNNaffinity_variance>
0.3153528571

$$$$
/media/chris/experiments/cd1a-new-docking/inputs/ligands/5j1a_ligand.pdb


 25 25  0  0  0  0  0  0  0  0999 V2000
  -49.1185   58.8422   61.8652 C   0  0  0  0  0  0  0  0  0  0  0  0
  -50.4035   58.5827   62.6654 C   0  0  0  0  0  0  0  0  0  0  0  0
  -51.1394   59.8899   62.9262 C   0  0  0  0  0  0  0  0  0  0  0  0
  -51.0829   60.2152   64.4192 C   0  0  0  0  0  0  0  0  0  0  0  0
  -50.3199   59.1225   65.1679 C   0  0  0  0  0  0  0  0  0  0  0  0
  -48.1187   60.2008   66.2014 C   0  0  0  0  0  0  0  0  0  0  0  0
  -49.5946   59.7802   66.3432 C   0  0  0  0  0  0  0  0  0  0  0  0
  -47.2932   59.8730   64.9477 C   0  0  0  0  0  0  0  0  0  0  0  0
  -47.2643   61.1395   64.0796 C   0  0  0  0  0  0  0  0  0  0  0  0
  -46.2436   61.3218   62.9309 C   0  0  0  0  0  0  0  0  0  0  0  0
  -45.2213   60.2262   62.5708 C   0  0  0  0  0  0  0  0  0  0  0  0
  -45.4973   58.1803   61.0988 C   0  0  0  0  0  0  0  0  0  0  0  0
  -45.5776   59.7071   61.1711 C   0  0  0  0  0  0  0  0  0  0  0  0
  -49.3367   59.7593   60.6338 C   0  0  0  0  0  0  0  0  0  0  0  0
  -49.6395   58.9735   59.3360 C   0  0  0  0  0  0  0  0  0  0  0  0
  -46.4811   58.4242   57.4711 C   0  0  0  0  0  0  0  0  0  0  0  0
  -46.2850   57.0450   57.6224 C   0  0  0  0  0  0  0  0  0  0  0  0
  -47.5978   59.0468   58.0413 C   0  0  0  0  0  0  0  0  0  0  0  0
  -47.2195   56.3110   58.3526 C   0  0  0  0  0  0  0  0  0  0  0  0
  -48.3250   56.9385   58.9243 C   0  0  0  0  0  0  0  0  0  0  0  0
  -48.5199   58.3203   58.8032 C   0  0  0  0  0  0  0  0  0  0  0  0
  -47.1038   54.9737   58.5427 O   0  0  0  0  0  0  0  0  0  0  0  0
  -49.2087   56.1812   59.6366 O   0  0  0  0  0  0  0  0  0  0  0  0
  -46.3767   54.5096   58.1767 H   0  0  0  0  0  0  0  0  0  0  0  0
  -49.0762   55.2571   59.7161 H   0  0  0  0  0  0  0  0  0  0  0  0
 12 13  1  0  0  0
  9 10  2  0  0  0
  9  8  1  0  0  0
  6  7  2  0  0  0
  6  8  1  0  0  0
 10 11  1  0  0  0
  7  5  1  0  0  0
 16 17  2  0  0  0
 16 18  1  0  0  0
 17 19  1  0  0  0
 18 21  2  0  0  0
 13 11  1  0  0  0
  5  4  1  0  0  0
  4  3  1  0  0  0
  3  2  1  0  0  0
  2  1  1  0  0  0
  1 14  1  0  0  0
 14 15  1  0  0  0
 15 21  1  0  0  0
 19 20  2  0  0  0
 19 22  1  0  0  0
 20 21  1  0  0  0
 20 23  1  0  0  0
 22 24  1  0  0  0
 23 25  1  0  0  0
M  END
> <minimizedAffinity>
-7.95725

> <CNNscore>
0.3358642459

> <CNNaffinity>
6.4950318336

> <CNN_VS>
2.1814489365

> <CNNaffinity_variance>
0.1322847307

$$$$
/media/chris/experiments/cd1a-new-docking/inputs/ligands/5j1a_ligand.pdb


 25 25  0  0  0  0  0  0  0  0999 V2000
  -42.6346   59.8748   62.5106 C   0  0  0  0  0  0  0  0  0  0  0  0
  -43.1257   58.4895   62.0648 C   0  0  0  0  0  0  0  0  0  0  0  0
  -44.5883   58.2981   62.4422 C   0  0  0  0  0  0  0  0  0  0  0  0
  -45.4669   59.1290   61.5065 C   0  0  0  0  0  0  0  0  0  0  0  0
  -45.8105   58.3239   60.2534 C   0  0  0  0  0  0  0  0  0  0  0  0
  -46.7227   58.8498   57.8105 C   0  0  0  0  0  0  0  0  0  0  0  0
  -46.5470   59.2538   59.2875 C   0  0  0  0  0  0  0  0  0  0  0  0
  -46.0737   57.5852   57.2271 C   0  0  0  0  0  0  0  0  0  0  0  0
  -47.2052   56.7140   56.6622 C   0  0  0  0  0  0  0  0  0  0  0  0
  -48.0060   55.7335   57.5522 C   0  0  0  0  0  0  0  0  0  0  0  0
  -47.7361   55.6029   59.0640 C   0  0  0  0  0  0  0  0  0  0  0  0
  -49.6796   57.2064   59.3460 C   0  0  0  0  0  0  0  0  0  0  0  0
  -49.0579   55.8811   59.7927 C   0  0  0  0  0  0  0  0  0  0  0  0
  -41.0940   59.9587   62.6673 C   0  0  0  0  0  0  0  0  0  0  0  0
  -40.3333   59.7106   61.3433 C   0  0  0  0  0  0  0  0  0  0  0  0
  -38.3972   56.5756   61.7657 C   0  0  0  0  0  0  0  0  0  0  0  0
  -37.0815   57.0502   61.8495 C   0  0  0  0  0  0  0  0  0  0  0  0
  -39.4625   57.4689   61.6016 C   0  0  0  0  0  0  0  0  0  0  0  0
  -36.8574   58.4240   61.7625 C   0  0  0  0  0  0  0  0  0  0  0  0
  -37.9219   59.3074   61.5914 C   0  0  0  0  0  0  0  0  0  0  0  0
  -39.2394   58.8451   61.4800 C   0  0  0  0  0  0  0  0  0  0  0  0
  -35.6157   58.9631   61.8371 O   0  0  0  0  0  0  0  0  0  0  0  0
  -37.6539   60.6424   61.5037 O   0  0  0  0  0  0  0  0  0  0  0  0
  -34.8699   58.4076   61.9520 H   0  0  0  0  0  0  0  0  0  0  0  0
  -36.7717   60.9491   61.5786 H   0  0  0  0  0  0  0  0  0  0  0  0
 12 13  1  0  0  0
  9 10  2  0  0  0
  9  8  1  0  0  0
  6  7  2  0  0  0
  6  8  1  0  0  0
 10 11  1  0  0  0
  7  5  1  0  0  0
 16 17  2  0  0  0
 16 18  1  0  0  0
 17 19  1  0  0  0
 18 21  2  0  0  0
 13 11  1  0  0  0
  5  4  1  0  0  0
  4  3  1  0  0  0
  3  2  1  0  0  0
  2  1  1  0  0  0
  1 14  1  0  0  0
 14 15  1  0  0  0
 15 21  1  0  0  0
 19 20  2  0  0  0
 19 22  1  0  0  0
 20 21  1  0  0  0
 20 23  1  0  0  0
 22 24  1  0  0  0
 23 25  1  0  0  0
M  END
> <minimizedAffinity>
-8.10292

> <CNNscore>
0.3329911232

> <CNNaffinity>
5.9888200760

> <CNN_VS>
1.9942239523

> <CNNaffinity_variance>
0.0541438572

$$$$
/media/chris/experiments/cd1a-new-docking/inputs/ligands/5j1a_ligand.pdb


 25 25  0  0  0  0  0  0  0  0999 V2000
  -46.0573   57.9432   57.9015 C   0  0  0  0  0  0  0  0  0  0  0  0
  -46.7446   57.1324   56.7928 C   0  0  0  0  0  0  0  0  0  0  0  0
  -47.9660   56.4093   57.3435 C   0  0  0  0  0  0  0  0  0  0  0  0
  -47.5827   55.6692   58.6255 C   0  0  0  0  0  0  0  0  0  0  0  0
  -48.5677   56.0083   59.7441 C   0  0  0  0  0  0  0  0  0  0  0  0
  -50.5359   57.7678   60.0708 C   0  0  0  0  0  0  0  0  0  0  0  0
  -49.6653   56.8919   59.1487 C   0  0  0  0  0  0  0  0  0  0  0  0
  -50.4275   57.7002   61.6020 C   0  0  0  0  0  0  0  0  0  0  0  0
  -50.7688   59.0962   62.1430 C   0  0  0  0  0  0  0  0  0  0  0  0
  -50.5770   59.4664   63.6333 C   0  0  0  0  0  0  0  0  0  0  0  0
  -49.9985   58.4643   64.6514 C   0  0  0  0  0  0  0  0  0  0  0  0
  -47.5440   58.4274   64.0169 C   0  0  0  0  0  0  0  0  0  0  0  0
  -48.5854   58.9413   65.0138 C   0  0  0  0  0  0  0  0  0  0  0  0
  -46.8097   59.2504   58.2623 C   0  0  0  0  0  0  0  0  0  0  0  0
  -47.2010   59.3345   59.7567 C   0  0  0  0  0  0  0  0  0  0  0  0
  -44.2992   58.4626   61.8956 C   0  0  0  0  0  0  0  0  0  0  0  0
  -43.9324   59.7099   62.4181 C   0  0  0  0  0  0  0  0  0  0  0  0
  -45.3852   58.3545   61.0188 C   0  0  0  0  0  0  0  0  0  0  0  0
  -44.6664   60.8355   62.0448 C   0  0  0  0  0  0  0  0  0  0  0  0
  -45.7418   60.7220   61.1653 C   0  0  0  0  0  0  0  0  0  0  0  0
  -46.1034   59.4858   60.6150 C   0  0  0  0  0  0  0  0  0  0  0  0
  -44.3777   62.0766   62.5076 O   0  0  0  0  0  0  0  0  0  0  0  0
  -46.4258   61.8517   60.8224 O   0  0  0  0  0  0  0  0  0  0  0  0
  -43.6634   62.2009   63.1012 H   0  0  0  0  0  0  0  0  0  0  0  0
  -46.1819   62.6775   61.1920 H   0  0  0  0  0  0  0  0  0  0  0  0
 12 13  1  0  0  0
  9 10  2  0  0  0
  9  8  1  0  0  0
  6  7  2  0  0  0
  6  8  1  0  0  0
 10 11  1  0  0  0
  7  5  1  0  0  0
 16 17  2  0  0  0
 16 18  1  0  0  0
 17 19  1  0  0  0
 18 21  2  0  0  0
 13 11  1  0  0  0
  5  4  1  0  0  0
  4  3  1  0  0  0
  3  2  1  0  0  0
  2  1  1  0  0  0
  1 14  1  0  0  0
 14 15  1  0  0  0
 15 21  1  0  0  0
 19 20  2  0  0  0
 19 22  1  0  0  0
 20 21  1  0  0  0
 20 23  1  0  0  0
 22 24  1  0  0  0
 23 25  1  0  0  0
M  END
> <minimizedAffinity>
-7.96820

> <CNNscore>
0.3027256727

> <CNNaffinity>
6.4139800072

> <CNN_VS>
1.9416763783

> <CNNaffinity_variance>
0.0301800165

$$$$
/media/chris/experiments/cd1a-new-docking/inputs/ligands/5j1a_ligand.pdb


 25 25  0  0  0  0  0  0  0  0999 V2000
  -48.4368   60.0319   65.8218 C   0  0  0  0  0  0  0  0  0  0  0  0
  -49.2768   58.7585   66.0005 C   0  0  0  0  0  0  0  0  0  0  0  0
  -50.0467   58.4471   64.7244 C   0  0  0  0  0  0  0  0  0  0  0  0
  -50.5968   59.7458   64.1337 C   0  0  0  0  0  0  0  0  0  0  0  0
  -51.0976   59.5061   62.7095 C   0  0  0  0  0  0  0  0  0  0  0  0
  -49.7155   59.2960   60.4463 C   0  0  0  0  0  0  0  0  0  0  0  0
  -50.0459   60.0573   61.7451 C   0  0  0  0  0  0  0  0  0  0  0  0
  -50.3210   57.9197   60.1301 C   0  0  0  0  0  0  0  0  0  0  0  0
  -49.1792   56.8951   60.1986 C   0  0  0  0  0  0  0  0  0  0  0  0
  -48.2937   56.5726   58.9712 C   0  0  0  0  0  0  0  0  0  0  0  0
  -48.4859   57.2885   57.6200 C   0  0  0  0  0  0  0  0  0  0  0  0
  -46.9481   59.2868   57.8855 C   0  0  0  0  0  0  0  0  0  0  0  0
  -47.1382   57.9142   57.2355 C   0  0  0  0  0  0  0  0  0  0  0  0
  -46.9141   59.7542   65.7242 C   0  0  0  0  0  0  0  0  0  0  0  0
  -46.5867   58.3361   65.1997 C   0  0  0  0  0  0  0  0  0  0  0  0
  -46.2870   58.6844   61.5195 C   0  0  0  0  0  0  0  0  0  0  0  0
  -44.9735   58.2544   61.2883 C   0  0  0  0  0  0  0  0  0  0  0  0
  -46.8071   58.7024   62.8191 C   0  0  0  0  0  0  0  0  0  0  0  0
  -44.1990   57.8505   62.3756 C   0  0  0  0  0  0  0  0  0  0  0  0
  -44.7205   57.8783   63.6679 C   0  0  0  0  0  0  0  0  0  0  0  0
  -46.0227   58.3303   63.9167 C   0  0  0  0  0  0  0  0  0  0  0  0
  -42.9214   57.4189   62.2362 O   0  0  0  0  0  0  0  0  0  0  0  0
  -43.9232   57.4813   64.7016 O   0  0  0  0  0  0  0  0  0  0  0  0
  -42.5290   57.3833   61.3861 H   0  0  0  0  0  0  0  0  0  0  0  0
  -43.0525   57.1793   64.5324 H   0  0  0  0  0  0  0  0  0  0  0  0
 12 13  1  0  0  0
  9 10  2  0  0  0
  9  8  1  0  0  0
  6  7  2  0  0  0
  6  8  1  0  0  0
 10 11  1  0  0  0
  7  5  1  0  0  0
 16 17  2  0  0  0
 16 18  1  0  0  0
 17 19  1  0  0  0
 18 21  2  0  0  0
 13 11  1  0  0  0
  5  4  1  0  0  0
  4  3  1  0  0  0
  3  2  1  0  0  0
  2  1  1  0  0  0
  1 14  1  0  0  0
 14 15  1  0  0  0
 15 21  1  0  0  0
 19 20  2  0  0  0
 19 22  1  0  0  0
 20 21  1  0  0  0
 20 23  1  0  0  0
 22 24  1  0  0  0
 23 25  1  0  0  0
M  END
> <minimizedAffinity>
-7.43218

> <CNNscore>
0.2967618406

> <CNNaffinity>
6.3290696144

> <CNN_VS>
1.8782263994

> <CNNaffinity_variance>
0.2399689704

$$$$
