/media/chris/experiments/cd1a-new-docking/inputs/ligands/5j1a_ligand.pdb


 25 25  0  0  0  0  0  0  0  0999 V2000
  -48.7787   58.4988   66.1768 C   0  0  0  0  0  0  0  0  0  0  0  0
  -50.0639   58.4821   65.3360 C   0  0  0  0  0  0  0  0  0  0  0  0
  -50.1830   59.7639   64.5232 C   0  0  0  0  0  0  0  0  0  0  0  0
  -50.7578   59.4390   63.1440 C   0  0  0  0  0  0  0  0  0  0  0  0
  -50.0238   58.2442   62.5356 C   0  0  0  0  0  0  0  0  0  0  0  0
  -49.9977   57.4685   59.9913 C   0  0  0  0  0  0  0  0  0  0  0  0
  -50.7774   57.8267   61.2716 C   0  0  0  0  0  0  0  0  0  0  0  0
  -48.4733   57.6314   59.8911 C   0  0  0  0  0  0  0  0  0  0  0  0
  -48.2058   58.9170   59.0949 C   0  0  0  0  0  0  0  0  0  0  0  0
  -47.1194   58.9882   57.9952 C   0  0  0  0  0  0  0  0  0  0  0  0
  -46.2687   57.7611   57.6129 C   0  0  0  0  0  0  0  0  0  0  0  0
  -47.2396   55.5134   56.9545 C   0  0  0  0  0  0  0  0  0  0  0  0
  -47.0466   56.9763   56.5477 C   0  0  0  0  0  0  0  0  0  0  0  0
  -47.5415   59.0146   65.3970 C   0  0  0  0  0  0  0  0  0  0  0  0
  -46.4154   57.9606   65.2767 C   0  0  0  0  0  0  0  0  0  0  0  0
  -45.5800   58.7351   61.7471 C   0  0  0  0  0  0  0  0  0  0  0  0
  -44.2866   58.2096   61.6279 C   0  0  0  0  0  0  0  0  0  0  0  0
  -46.2724   58.6417   62.9603 C   0  0  0  0  0  0  0  0  0  0  0  0
  -43.7059   57.5983   62.7389 C   0  0  0  0  0  0  0  0  0  0  0  0
  -44.3979   57.5157   63.9461 C   0  0  0  0  0  0  0  0  0  0  0  0
  -45.6811   58.0595   64.0871 C   0  0  0  0  0  0  0  0  0  0  0  0
  -42.4607   57.0633   62.7051 O   0  0  0  0  0  0  0  0  0  0  0  0
  -43.7869   56.9156   65.0083 O   0  0  0  0  0  0  0  0  0  0  0  0
  -41.9582   57.0957   61.9149 H   0  0  0  0  0  0  0  0  0  0  0  0
  -42.9285   56.5527   64.9113 H   0  0  0  0  0  0  0  0  0  0  0  0
 12 13  1  0  0  0
  9 10  2  0  0  0
  9  8  1  0  0  0
  6  7  2  0  0  0
  6  8  1  0  0  0
 10 11  1  0  0  0
  7  5  1  0  0  0
 16 17  2  0  0  0
 16 18  1  0  0  0
 17 19  1  0  0  0
 18 21  2  0  0  0
 13 11  1  0  0  0
  5  4  1  0  0  0
  4  3  1  0  0  0
  3  2  1  0  0  0
  2  1  1  0  0  0
  1 14  1  0  0  0
 14 15  1  0  0  0
 15 21  1  0  0  0
 19 20  2  0  0  0
 19 22  1  0  0  0
 20 21  1  0  0  0
 20 23  1  0  0  0
 22 24  1  0  0  0
 23 25  1  0  0  0
M  END
> <minimizedAffinity>
-7.78354

> <CNNscore>
0.5208281875

> <CNNaffinity>
6.5550680161

> <CNN_VS>
3.4140641689

> <CNNaffinity_variance>
0.4160645902

$$$$
/media/chris/experiments/cd1a-new-docking/inputs/ligands/5j1a_ligand.pdb


 25 25  0  0  0  0  0  0  0  0999 V2000
  -49.9771   58.4169   63.9271 C   0  0  0  0  0  0  0  0  0  0  0  0
  -50.2321   59.5927   62.9724 C   0  0  0  0  0  0  0  0  0  0  0  0
  -48.9948   59.8700   62.1296 C   0  0  0  0  0  0  0  0  0  0  0  0
  -49.4154   60.5057   60.8041 C   0  0  0  0  0  0  0  0  0  0  0  0
  -48.8285   59.7185   59.6326 C   0  0  0  0  0  0  0  0  0  0  0  0
  -50.0329   57.3538   59.4493 C   0  0  0  0  0  0  0  0  0  0  0  0
  -49.9404   58.8409   59.0552 C   0  0  0  0  0  0  0  0  0  0  0  0
  -48.9657   56.6717   60.3191 C   0  0  0  0  0  0  0  0  0  0  0  0
  -48.2910   55.5991   59.4516 C   0  0  0  0  0  0  0  0  0  0  0  0
  -47.0053   55.8908   58.6412 C   0  0  0  0  0  0  0  0  0  0  0  0
  -46.3097   57.2654   58.6880 C   0  0  0  0  0  0  0  0  0  0  0  0
  -47.5389   57.3846   56.4737 C   0  0  0  0  0  0  0  0  0  0  0  0
  -46.3010   57.8251   57.2589 C   0  0  0  0  0  0  0  0  0  0  0  0
  -50.1737   58.7850   65.4206 C   0  0  0  0  0  0  0  0  0  0  0  0
  -48.8847   59.3166   66.0910 C   0  0  0  0  0  0  0  0  0  0  0  0
  -46.6753   56.3385   66.1664 C   0  0  0  0  0  0  0  0  0  0  0  0
  -45.5067   56.8228   65.5638 C   0  0  0  0  0  0  0  0  0  0  0  0
  -47.7832   57.1773   66.3366 C   0  0  0  0  0  0  0  0  0  0  0  0
  -45.4728   58.1500   65.1364 C   0  0  0  0  0  0  0  0  0  0  0  0
  -46.5823   58.9774   65.3019 C   0  0  0  0  0  0  0  0  0  0  0  0
  -47.7659   58.4996   65.8789 C   0  0  0  0  0  0  0  0  0  0  0  0
  -44.3804   58.6953   64.5471 O   0  0  0  0  0  0  0  0  0  0  0  0
  -46.5059   60.2666   64.8614 O   0  0  0  0  0  0  0  0  0  0  0  0
  -43.6113   58.1766   64.4152 H   0  0  0  0  0  0  0  0  0  0  0  0
  -45.7130   60.5836   64.4757 H   0  0  0  0  0  0  0  0  0  0  0  0
 12 13  1  0  0  0
  9 10  2  0  0  0
  9  8  1  0  0  0
  6  7  2  0  0  0
  6  8  1  0  0  0
 10 11  1  0  0  0
  7  5  1  0  0  0
 16 17  2  0  0  0
 16 18  1  0  0  0
 17 19  1  0  0  0
 18 21  2  0  0  0
 13 11  1  0  0  0
  5  4  1  0  0  0
  4  3  1  0  0  0
  3  2  1  0  0  0
  2  1  1  0  0  0
  1 14  1  0  0  0
 14 15  1  0  0  0
 15 21  1  0  0  0
 19 20  2  0  0  0
 19 22  1  0  0  0
 20 21  1  0  0  0
 20 23  1  0  0  0
 22 24  1  0  0  0
 23 25  1  0  0  0
M  END
> <minimizedAffinity>
-7.74531

> <CNNscore>
0.5065265894

> <CNNaffinity>
6.4882574081

> <CNN_VS>
3.2864749432

> <CNNaffinity_variance>
0.2731599510

$$$$
/media/chris/experiments/cd1a-new-docking/inputs/ligands/5j1a_ligand.pdb


 25 25  0  0  0  0  0  0  0  0999 V2000
  -49.1592   58.2318   63.7923 C   0  0  0  0  0  0  0  0  0  0  0  0
  -50.3793   58.9778   63.2322 C   0  0  0  0  0  0  0  0  0  0  0  0
  -50.2785   59.0983   61.7178 C   0  0  0  0  0  0  0  0  0  0  0  0
  -50.8044   57.8168   61.0704 C   0  0  0  0  0  0  0  0  0  0  0  0
  -50.0350   57.5230   59.7827 C   0  0  0  0  0  0  0  0  0  0  0  0
  -48.3126   55.7062   58.8836 C   0  0  0  0  0  0  0  0  0  0  0  0
  -49.2095   56.2554   60.0102 C   0  0  0  0  0  0  0  0  0  0  0  0
  -48.3034   56.3195   57.4749 C   0  0  0  0  0  0  0  0  0  0  0  0
  -46.8432   56.6511   57.1340 C   0  0  0  0  0  0  0  0  0  0  0  0
  -46.2224   58.0333   57.4486 C   0  0  0  0  0  0  0  0  0  0  0  0
  -47.0258   59.1431   58.1547 C   0  0  0  0  0  0  0  0  0  0  0  0
  -45.6198   58.0303   59.9473 C   0  0  0  0  0  0  0  0  0  0  0  0
  -46.7440   59.0282   59.6591 C   0  0  0  0  0  0  0  0  0  0  0  0
  -47.8075   58.7965   63.2836 C   0  0  0  0  0  0  0  0  0  0  0  0
  -47.3159   60.0197   64.0934 C   0  0  0  0  0  0  0  0  0  0  0  0
  -45.7858   62.2162   61.5263 C   0  0  0  0  0  0  0  0  0  0  0  0
  -44.4543   62.2896   61.9565 C   0  0  0  0  0  0  0  0  0  0  0  0
  -46.7198   61.4581   62.2426 C   0  0  0  0  0  0  0  0  0  0  0  0
  -44.0828   61.5980   63.1092 C   0  0  0  0  0  0  0  0  0  0  0  0
  -45.0195   60.8514   63.8219 C   0  0  0  0  0  0  0  0  0  0  0  0
  -46.3595   60.7901   63.4182 C   0  0  0  0  0  0  0  0  0  0  0  0
  -42.8152   61.6157   63.5896 O   0  0  0  0  0  0  0  0  0  0  0  0
  -44.6121   60.1976   64.9481 O   0  0  0  0  0  0  0  0  0  0  0  0
  -42.1518   62.1043   63.1433 H   0  0  0  0  0  0  0  0  0  0  0  0
  -43.7152   60.2403   65.2159 H   0  0  0  0  0  0  0  0  0  0  0  0
 12 13  1  0  0  0
  9 10  2  0  0  0
  9  8  1  0  0  0
  6  7  2  0  0  0
  6  8  1  0  0  0
 10 11  1  0  0  0
  7  5  1  0  0  0
 16 17  2  0  0  0
 16 18  1  0  0  0
 17 19  1  0  0  0
 18 21  2  0  0  0
 13 11  1  0  0  0
  5  4  1  0  0  0
  4  3  1  0  0  0
  3  2  1  0  0  0
  2  1  1  0  0  0
  1 14  1  0  0  0
 14 15  1  0  0  0
 15 21  1  0  0  0
 19 20  2  0  0  0
 19 22  1  0  0  0
 20 21  1  0  0  0
 20 23  1  0  0  0
 22 24  1  0  0  0
 23 25  1  0  0  0
M  END
> <minimizedAffinity>
-7.71864

> <CNNscore>
0.4714646935

> <CNNaffinity>
6.2781324387

> <CNN_VS>
2.9599177837

> <CNNaffinity_variance>
0.1866240352

$$$$
/media/chris/experiments/cd1a-new-docking/inputs/ligands/5j1a_ligand.pdb


 25 25  0  0  0  0  0  0  0  0999 V2000
  -48.0838   56.3714   59.5760 C   0  0  0  0  0  0  0  0  0  0  0  0
  -49.4872   56.7445   59.0758 C   0  0  0  0  0  0  0  0  0  0  0  0
  -50.3542   57.2200   60.2336 C   0  0  0  0  0  0  0  0  0  0  0  0
  -50.0352   58.6839   60.5388 C   0  0  0  0  0  0  0  0  0  0  0  0
  -49.8824   58.8865   62.0462 C   0  0  0  0  0  0  0  0  0  0  0  0
  -51.1763   60.2286   63.9437 C   0  0  0  0  0  0  0  0  0  0  0  0
  -51.1622   59.5475   62.5612 C   0  0  0  0  0  0  0  0  0  0  0  0
  -49.9727   60.1668   64.8967 C   0  0  0  0  0  0  0  0  0  0  0  0
  -50.3401   59.1969   66.0292 C   0  0  0  0  0  0  0  0  0  0  0  0
  -49.6451   57.8236   66.1890 C   0  0  0  0  0  0  0  0  0  0  0  0
  -48.5190   57.3676   65.2404 C   0  0  0  0  0  0  0  0  0  0  0  0
  -46.1466   56.7526   65.8898 C   0  0  0  0  0  0  0  0  0  0  0  0
  -47.6282   56.3911   66.0205 C   0  0  0  0  0  0  0  0  0  0  0  0
  -46.9802   56.5558   58.5022 C   0  0  0  0  0  0  0  0  0  0  0  0
  -45.8499   57.5129   58.9495 C   0  0  0  0  0  0  0  0  0  0  0  0
  -47.4633   60.8471   59.1383 C   0  0  0  0  0  0  0  0  0  0  0  0
  -47.2120   61.2218   60.4649 C   0  0  0  0  0  0  0  0  0  0  0  0
  -47.0030   59.6179   58.6512 C   0  0  0  0  0  0  0  0  0  0  0  0
  -46.5005   60.3470   61.2856 C   0  0  0  0  0  0  0  0  0  0  0  0
  -46.0518   59.1213   60.7964 C   0  0  0  0  0  0  0  0  0  0  0  0
  -46.3182   58.7225   59.4803 C   0  0  0  0  0  0  0  0  0  0  0  0
  -46.2140   60.6358   62.5788 O   0  0  0  0  0  0  0  0  0  0  0  0
  -45.3665   58.2944   61.6381 O   0  0  0  0  0  0  0  0  0  0  0  0
  -46.4956   61.4485   62.9508 H   0  0  0  0  0  0  0  0  0  0  0  0
  -45.1897   58.5637   62.5179 H   0  0  0  0  0  0  0  0  0  0  0  0
 12 13  1  0  0  0
  9 10  2  0  0  0
  9  8  1  0  0  0
  6  7  2  0  0  0
  6  8  1  0  0  0
 10 11  1  0  0  0
  7  5  1  0  0  0
 16 17  2  0  0  0
 16 18  1  0  0  0
 17 19  1  0  0  0
 18 21  2  0  0  0
 13 11  1  0  0  0
  5  4  1  0  0  0
  4  3  1  0  0  0
  3  2  1  0  0  0
  2  1  1  0  0  0
  1 14  1  0  0  0
 14 15  1  0  0  0
 15 21  1  0  0  0
 19 20  2  0  0  0
 19 22  1  0  0  0
 20 21  1  0  0  0
 20 23  1  0  0  0
 22 24  1  0  0  0
 23 25  1  0  0  0
M  END
> <minimizedAffinity>
-8.02441

> <CNNscore>
0.4567688704

> <CNNaffinity>
6.4795775414

> <CNN_VS>
2.9596693516

> <CNNaffinity_variance>
0.3039285541

$$$$
/media/chris/experiments/cd1a-new-docking/inputs/ligands/5j1a_ligand.pdb


 25 25  0  0  0  0  0  0  0  0999 V2000
  -49.4091   57.8689   62.2701 C   0  0  0  0  0  0  0  0  0  0  0  0
  -50.5406   57.6205   61.2616 C   0  0  0  0  0  0  0  0  0  0  0  0
  -50.2099   56.4267   60.3763 C   0  0  0  0  0  0  0  0  0  0  0  0
  -49.2342   56.8610   59.2821 C   0  0  0  0  0  0  0  0  0  0  0  0
  -48.0775   55.8667   59.1828 C   0  0  0  0  0  0  0  0  0  0  0  0
  -46.8082   56.2897   56.8838 C   0  0  0  0  0  0  0  0  0  0  0  0
  -47.8722   55.5344   57.7038 C   0  0  0  0  0  0  0  0  0  0  0  0
  -46.0124   57.4677   57.4667 C   0  0  0  0  0  0  0  0  0  0  0  0
  -46.8672   58.7296   57.2792 C   0  0  0  0  0  0  0  0  0  0  0  0
  -47.1820   59.6874   58.4532 C   0  0  0  0  0  0  0  0  0  0  0  0
  -46.6249   59.4466   59.8700 C   0  0  0  0  0  0  0  0  0  0  0  0
  -48.6779   60.8653   60.3185 C   0  0  0  0  0  0  0  0  0  0  0  0
  -47.2788   60.4759   60.8021 C   0  0  0  0  0  0  0  0  0  0  0  0
  -49.9108   58.4038   63.6364 C   0  0  0  0  0  0  0  0  0  0  0  0
  -48.8129   59.1370   64.4430 C   0  0  0  0  0  0  0  0  0  0  0  0
  -47.2361   56.3543   66.3207 C   0  0  0  0  0  0  0  0  0  0  0  0
  -45.8730   56.5697   66.0781 C   0  0  0  0  0  0  0  0  0  0  0  0
  -48.1963   57.2147   65.7752 C   0  0  0  0  0  0  0  0  0  0  0  0
  -45.4961   57.6517   65.2829 C   0  0  0  0  0  0  0  0  0  0  0  0
  -46.4578   58.4999   64.7365 C   0  0  0  0  0  0  0  0  0  0  0  0
  -47.8250   58.2815   64.9492 C   0  0  0  0  0  0  0  0  0  0  0  0
  -44.1991   57.9300   65.0030 O   0  0  0  0  0  0  0  0  0  0  0  0
  -46.0426   59.5411   63.9583 O   0  0  0  0  0  0  0  0  0  0  0  0
  -43.5183   57.3869   65.3488 H   0  0  0  0  0  0  0  0  0  0  0  0
  -45.1275   59.6849   63.8177 H   0  0  0  0  0  0  0  0  0  0  0  0
 12 13  1  0  0  0
  9 10  2  0  0  0
  9  8  1  0  0  0
  6  7  2  0  0  0
  6  8  1  0  0  0
 10 11  1  0  0  0
  7  5  1  0  0  0
 16 17  2  0  0  0
 16 18  1  0  0  0
 17 19  1  0  0  0
 18 21  2  0  0  0
 13 11  1  0  0  0
  5  4  1  0  0  0
  4  3  1  0  0  0
  3  2  1  0  0  0
  2  1  1  0  0  0
  1 14  1  0  0  0
 14 15  1  0  0  0
 15 21  1  0  0  0
 19 20  2  0  0  0
 19 22  1  0  0  0
 20 21  1  0  0  0
 20 23  1  0  0  0
 22 24  1  0  0  0
 23 25  1  0  0  0
M  END
> <minimizedAffinity>
-7.95305

> <CNNscore>
0.4516091943

> <CNNaffinity>
6.5159440041

> <CNN_VS>
2.9426603317

> <CNNaffinity_variance>
0.1555502713

$$$$
/media/chris/experiments/cd1a-new-docking/inputs/ligands/5j1a_ligand.pdb


 25 25  0  0  0  0  0  0  0  0999 V2000
  -46.4313   57.6829   60.0121 C   0  0  0  0  0  0  0  0  0  0  0  0
  -46.3252   57.8396   58.4879 C   0  0  0  0  0  0  0  0  0  0  0  0
  -47.6442   58.3367   57.9124 C   0  0  0  0  0  0  0  0  0  0  0  0
  -48.4412   59.0453   59.0081 C   0  0  0  0  0  0  0  0  0  0  0  0
  -49.9065   58.6131   58.9569 C   0  0  0  0  0  0  0  0  0  0  0  0
  -50.4414   58.2271   61.5339 C   0  0  0  0  0  0  0  0  0  0  0  0
  -50.1546   57.6620   60.1290 C   0  0  0  0  0  0  0  0  0  0  0  0
  -50.3685   59.7311   61.8396 C   0  0  0  0  0  0  0  0  0  0  0  0
  -51.1671   59.9712   63.1290 C   0  0  0  0  0  0  0  0  0  0  0  0
  -50.4846   60.0263   64.5168 C   0  0  0  0  0  0  0  0  0  0  0  0
  -48.9589   59.8787   64.6783 C   0  0  0  0  0  0  0  0  0  0  0  0
  -49.6116   57.8047   65.9826 C   0  0  0  0  0  0  0  0  0  0  0  0
  -48.6653   58.3940   64.9338 C   0  0  0  0  0  0  0  0  0  0  0  0
  -45.1312   58.0741   60.7614 C   0  0  0  0  0  0  0  0  0  0  0  0
  -45.3965   58.7814   62.1115 C   0  0  0  0  0  0  0  0  0  0  0  0
  -44.5501   62.3704   61.7140 C   0  0  0  0  0  0  0  0  0  0  0  0
  -43.3392   62.4671   62.4124 C   0  0  0  0  0  0  0  0  0  0  0  0
  -45.2168   61.1429   61.6207 C   0  0  0  0  0  0  0  0  0  0  0  0
  -42.8176   61.3211   63.0124 C   0  0  0  0  0  0  0  0  0  0  0  0
  -43.4906   60.1038   62.9222 C   0  0  0  0  0  0  0  0  0  0  0  0
  -44.7147   59.9980   62.2495 C   0  0  0  0  0  0  0  0  0  0  0  0
  -41.6512   61.3302   63.7033 O   0  0  0  0  0  0  0  0  0  0  0  0
  -42.9463   59.0110   63.5316 O   0  0  0  0  0  0  0  0  0  0  0  0
  -41.1643   62.1260   63.7901 H   0  0  0  0  0  0  0  0  0  0  0  0
  -42.1274   59.0845   63.9809 H   0  0  0  0  0  0  0  0  0  0  0  0
 12 13  1  0  0  0
  9 10  2  0  0  0
  9  8  1  0  0  0
  6  7  2  0  0  0
  6  8  1  0  0  0
 10 11  1  0  0  0
  7  5  1  0  0  0
 16 17  2  0  0  0
 16 18  1  0  0  0
 17 19  1  0  0  0
 18 21  2  0  0  0
 13 11  1  0  0  0
  5  4  1  0  0  0
  4  3  1  0  0  0
  3  2  1  0  0  0
  2  1  1  0  0  0
  1 14  1  0  0  0
 14 15  1  0  0  0
 15 21  1  0  0  0
 19 20  2  0  0  0
 19 22  1  0  0  0
 20 21  1  0  0  0
 20 23  1  0  0  0
 22 24  1  0  0  0
 23 25  1  0  0  0
M  END
> <minimizedAffinity>
-7.86175

> <CNNscore>
0.4345346391

> <CNNaffinity>
6.3061876297

> <CNN_VS>
2.7402570248

> <CNNaffinity_variance>
0.2001744062

$$$$
/media/chris/experiments/cd1a-new-docking/inputs/ligands/5j1a_ligand.pdb


 25 25  0  0  0  0  0  0  0  0999 V2000
  -47.5303   59.6443   61.3346 C   0  0  0  0  0  0  0  0  0  0  0  0
  -48.9556   60.1910   61.1652 C   0  0  0  0  0  0  0  0  0  0  0  0
  -49.9795   59.1323   61.5513 C   0  0  0  0  0  0  0  0  0  0  0  0
  -50.9659   59.7236   62.5589 C   0  0  0  0  0  0  0  0  0  0  0  0
  -50.3015   59.8596   63.9288 C   0  0  0  0  0  0  0  0  0  0  0  0
  -48.6694   58.0598   65.0119 C   0  0  0  0  0  0  0  0  0  0  0  0
  -50.0594   58.4506   64.4730 C   0  0  0  0  0  0  0  0  0  0  0  0
  -47.4608   59.0033   64.9137 C   0  0  0  0  0  0  0  0  0  0  0  0
  -47.1087   59.4397   66.3433 C   0  0  0  0  0  0  0  0  0  0  0  0
  -46.5123   58.4546   67.3770 C   0  0  0  0  0  0  0  0  0  0  0  0
  -46.2049   56.9875   67.0178 C   0  0  0  0  0  0  0  0  0  0  0  0
  -44.3845   57.0723   65.2549 C   0  0  0  0  0  0  0  0  0  0  0  0
  -44.6984   56.8879   66.7417 C   0  0  0  0  0  0  0  0  0  0  0  0
  -47.4322   58.1108   61.1263 C   0  0  0  0  0  0  0  0  0  0  0  0
  -46.2905   57.6989   60.1669 C   0  0  0  0  0  0  0  0  0  0  0  0
  -47.2257   58.2905   56.6270 C   0  0  0  0  0  0  0  0  0  0  0  0
  -47.6722   57.0249   56.2243 C   0  0  0  0  0  0  0  0  0  0  0  0
  -46.7748   58.4980   57.9360 C   0  0  0  0  0  0  0  0  0  0  0  0
  -47.6542   55.9816   57.1497 C   0  0  0  0  0  0  0  0  0  0  0  0
  -47.1966   56.1933   58.4492 C   0  0  0  0  0  0  0  0  0  0  0  0
  -46.7231   57.4466   58.8580 C   0  0  0  0  0  0  0  0  0  0  0  0
  -48.0715   54.7293   56.8402 O   0  0  0  0  0  0  0  0  0  0  0  0
  -47.1900   55.1410   59.3178 O   0  0  0  0  0  0  0  0  0  0  0  0
  -48.3874   54.5404   55.9785 H   0  0  0  0  0  0  0  0  0  0  0  0
  -47.5073   54.3037   59.0418 H   0  0  0  0  0  0  0  0  0  0  0  0
 12 13  1  0  0  0
  9 10  2  0  0  0
  9  8  1  0  0  0
  6  7  2  0  0  0
  6  8  1  0  0  0
 10 11  1  0  0  0
  7  5  1  0  0  0
 16 17  2  0  0  0
 16 18  1  0  0  0
 17 19  1  0  0  0
 18 21  2  0  0  0
 13 11  1  0  0  0
  5  4  1  0  0  0
  4  3  1  0  0  0
  3  2  1  0  0  0
  2  1  1  0  0  0
  1 14  1  0  0  0
 14 15  1  0  0  0
 15 21  1  0  0  0
 19 20  2  0  0  0
 19 22  1  0  0  0
 20 21  1  0  0  0
 20 23  1  0  0  0
 22 24  1  0  0  0
 23 25  1  0  0  0
M  END
> <minimizedAffinity>
-7.81355

> <CNNscore>
0.3931949139

> <CNNaffinity>
6.7879791260

> <CNN_VS>
2.6689989567

> <CNNaffinity_variance>
0.0995821953

$$$$
/media/chris/experiments/cd1a-new-docking/inputs/ligands/5j1a_ligand.pdb


 25 25  0  0  0  0  0  0  0  0999 V2000
  -47.1068   60.8952   61.2903 C   0  0  0  0  0  0  0  0  0  0  0  0
  -46.0329   61.9866   61.4104 C   0  0  0  0  0  0  0  0  0  0  0  0
  -44.7041   61.3789   61.8382 C   0  0  0  0  0  0  0  0  0  0  0  0
  -44.5472   61.5162   63.3529 C   0  0  0  0  0  0  0  0  0  0  0  0
  -44.0436   60.2030   63.9516 C   0  0  0  0  0  0  0  0  0  0  0  0
  -46.2034   58.6533   64.0485 C   0  0  0  0  0  0  0  0  0  0  0  0
  -44.8858   59.0686   63.3653 C   0  0  0  0  0  0  0  0  0  0  0  0
  -46.6562   59.2594   65.3857 C   0  0  0  0  0  0  0  0  0  0  0  0
  -47.5580   60.4584   65.0582 C   0  0  0  0  0  0  0  0  0  0  0  0
  -49.0610   60.2876   64.7317 C   0  0  0  0  0  0  0  0  0  0  0  0
  -49.7451   58.9066   64.7522 C   0  0  0  0  0  0  0  0  0  0  0  0
  -51.0730   59.6518   62.7250 C   0  0  0  0  0  0  0  0  0  0  0  0
  -50.1557   58.5756   63.3108 C   0  0  0  0  0  0  0  0  0  0  0  0
  -48.0866   61.1251   60.1105 C   0  0  0  0  0  0  0  0  0  0  0  0
  -48.8768   59.8539   59.7192 C   0  0  0  0  0  0  0  0  0  0  0  0
  -46.3980   58.2906   57.4460 C   0  0  0  0  0  0  0  0  0  0  0  0
  -46.5310   56.9304   57.7550 C   0  0  0  0  0  0  0  0  0  0  0  0
  -47.1839   59.2452   58.1025 C   0  0  0  0  0  0  0  0  0  0  0  0
  -47.4555   56.5509   58.7278 C   0  0  0  0  0  0  0  0  0  0  0  0
  -48.2293   57.5073   59.3832 C   0  0  0  0  0  0  0  0  0  0  0  0
  -48.0885   58.8725   59.1031 C   0  0  0  0  0  0  0  0  0  0  0  0
  -47.6463   55.2563   59.0823 O   0  0  0  0  0  0  0  0  0  0  0  0
  -49.1152   57.0900   60.3333 O   0  0  0  0  0  0  0  0  0  0  0  0
  -47.1483   54.5790   58.6684 H   0  0  0  0  0  0  0  0  0  0  0  0
  -49.2074   56.1762   60.5188 H   0  0  0  0  0  0  0  0  0  0  0  0
 12 13  1  0  0  0
  9 10  2  0  0  0
  9  8  1  0  0  0
  6  7  2  0  0  0
  6  8  1  0  0  0
 10 11  1  0  0  0
  7  5  1  0  0  0
 16 17  2  0  0  0
 16 18  1  0  0  0
 17 19  1  0  0  0
 18 21  2  0  0  0
 13 11  1  0  0  0
  5  4  1  0  0  0
  4  3  1  0  0  0
  3  2  1  0  0  0
  2  1  1  0  0  0
  1 14  1  0  0  0
 14 15  1  0  0  0
 15 21  1  0  0  0
 19 20  2  0  0  0
 19 22  1  0  0  0
 20 21  1  0  0  0
 20 23  1  0  0  0
 22 24  1  0  0  0
 23 25  1  0  0  0
M  END
> <minimizedAffinity>
-7.45113

> <CNNscore>
0.3455542028

> <CNNaffinity>
6.4297952652

> <CNN_VS>
2.2218427658

> <CNNaffinity_variance>
0.3278040886

$$$$
/media/chris/experiments/cd1a-new-docking/inputs/ligands/5j1a_ligand.pdb


 25 25  0  0  0  0  0  0  0  0999 V2000
  -49.0137   59.4102   61.7207 C   0  0  0  0  0  0  0  0  0  0  0  0
  -50.2493   58.8530   62.4431 C   0  0  0  0  0  0  0  0  0  0  0  0
  -51.1772   59.9863   62.8588 C   0  0  0  0  0  0  0  0  0  0  0  0
  -51.0325   60.2361   64.3603 C   0  0  0  0  0  0  0  0  0  0  0  0
  -50.3260   59.0548   65.0251 C   0  0  0  0  0  0  0  0  0  0  0  0
  -48.1876   59.9641   66.3199 C   0  0  0  0  0  0  0  0  0  0  0  0
  -49.6758   59.5635   66.3130 C   0  0  0  0  0  0  0  0  0  0  0  0
  -47.2806   59.7572   65.0972 C   0  0  0  0  0  0  0  0  0  0  0  0
  -47.2317   61.0910   64.3377 C   0  0  0  0  0  0  0  0  0  0  0  0
  -46.1700   61.3746   63.2482 C   0  0  0  0  0  0  0  0  0  0  0  0
  -45.1236   60.3194   62.8391 C   0  0  0  0  0  0  0  0  0  0  0  0
  -45.5176   58.4037   61.2256 C   0  0  0  0  0  0  0  0  0  0  0  0
  -45.4150   59.9226   61.3854 C   0  0  0  0  0  0  0  0  0  0  0  0
  -49.3432   60.0555   60.3496 C   0  0  0  0  0  0  0  0  0  0  0  0
  -49.6446   59.0155   59.2445 C   0  0  0  0  0  0  0  0  0  0  0  0
  -46.4018   58.3563   57.5697 C   0  0  0  0  0  0  0  0  0  0  0  0
  -46.2319   56.9824   57.7862 C   0  0  0  0  0  0  0  0  0  0  0  0
  -47.5383   59.0137   58.0558 C   0  0  0  0  0  0  0  0  0  0  0  0
  -47.2122   56.2889   58.4956 C   0  0  0  0  0  0  0  0  0  0  0  0
  -48.3374   56.9512   58.9835 C   0  0  0  0  0  0  0  0  0  0  0  0
  -48.5077   58.3290   58.7971 C   0  0  0  0  0  0  0  0  0  0  0  0
  -47.1239   54.9592   58.7449 O   0  0  0  0  0  0  0  0  0  0  0  0
  -49.2664   56.2332   59.6787 O   0  0  0  0  0  0  0  0  0  0  0  0
  -46.3850   54.4727   58.4362 H   0  0  0  0  0  0  0  0  0  0  0  0
  -49.1500   55.3117   59.8020 H   0  0  0  0  0  0  0  0  0  0  0  0
 12 13  1  0  0  0
  9 10  2  0  0  0
  9  8  1  0  0  0
  6  7  2  0  0  0
  6  8  1  0  0  0
 10 11  1  0  0  0
  7  5  1  0  0  0
 16 17  2  0  0  0
 16 18  1  0  0  0
 17 19  1  0  0  0
 18 21  2  0  0  0
 13 11  1  0  0  0
  5  4  1  0  0  0
  4  3  1  0  0  0
  3  2  1  0  0  0
  2  1  1  0  0  0
  1 14  1  0  0  0
 14 15  1  0  0  0
 15 21  1  0  0  0
 19 20  2  0  0  0
 19 22  1  0  0  0
 20 21  1  0  0  0
 20 23  1  0  0  0
 22 24  1  0  0  0
 23 25  1  0  0  0
M  END
> <minimizedAffinity>
-7.98100

> <CNNscore>
0.3099815249

> <CNNaffinity>
6.4469542503

> <CNN_VS>
1.9984366894

> <CNNaffinity_variance>
0.1486883014

$$$$
