/media/chris/experiments/cd1a-new-docking/inputs/ligands/5j1a_ligand.pdb


 25 25  0  0  0  0  0  0  0  0999 V2000
  -48.2523   56.6109   59.7009 C   0  0  0  0  0  0  0  0  0  0  0  0
  -49.6184   57.0478   59.1514 C   0  0  0  0  0  0  0  0  0  0  0  0
  -50.5341   57.4804   60.2883 C   0  0  0  0  0  0  0  0  0  0  0  0
  -49.8222   58.5304   61.1420 C   0  0  0  0  0  0  0  0  0  0  0  0
  -50.2743   58.4202   62.5980 C   0  0  0  0  0  0  0  0  0  0  0  0
  -51.1770   60.2378   64.3178 C   0  0  0  0  0  0  0  0  0  0  0  0
  -51.1652   59.6257   62.9035 C   0  0  0  0  0  0  0  0  0  0  0  0
  -50.4094   59.6041   65.4882 C   0  0  0  0  0  0  0  0  0  0  0  0
  -49.1248   60.4223   65.6843 C   0  0  0  0  0  0  0  0  0  0  0  0
  -47.7208   59.8023   65.4861 C   0  0  0  0  0  0  0  0  0  0  0  0
  -47.5344   58.3371   65.0456 C   0  0  0  0  0  0  0  0  0  0  0  0
  -47.5854   56.0124   66.0563 C   0  0  0  0  0  0  0  0  0  0  0  0
  -47.3266   57.4988   66.3143 C   0  0  0  0  0  0  0  0  0  0  0  0
  -47.1196   56.6643   58.6431 C   0  0  0  0  0  0  0  0  0  0  0  0
  -45.9454   57.5835   59.0549 C   0  0  0  0  0  0  0  0  0  0  0  0
  -47.5187   60.9307   59.3316 C   0  0  0  0  0  0  0  0  0  0  0  0
  -47.1450   61.3266   60.6227 C   0  0  0  0  0  0  0  0  0  0  0  0
  -47.1108   59.6905   58.8261 C   0  0  0  0  0  0  0  0  0  0  0  0
  -46.3655   60.4615   61.3903 C   0  0  0  0  0  0  0  0  0  0  0  0
  -45.9695   59.2247   60.8837 C   0  0  0  0  0  0  0  0  0  0  0  0
  -46.3572   58.8050   59.6048 C   0  0  0  0  0  0  0  0  0  0  0  0
  -45.9604   60.7708   62.6464 O   0  0  0  0  0  0  0  0  0  0  0  0
  -45.2140   58.4081   61.6737 O   0  0  0  0  0  0  0  0  0  0  0  0
  -46.2028   61.5914   63.0282 H   0  0  0  0  0  0  0  0  0  0  0  0
  -44.9558   58.6913   62.5288 H   0  0  0  0  0  0  0  0  0  0  0  0
 12 13  1  0  0  0
  9 10  2  0  0  0
  9  8  1  0  0  0
  6  7  2  0  0  0
  6  8  1  0  0  0
 10 11  1  0  0  0
  7  5  1  0  0  0
 16 17  2  0  0  0
 16 18  1  0  0  0
 17 19  1  0  0  0
 18 21  2  0  0  0
 13 11  1  0  0  0
  5  4  1  0  0  0
  4  3  1  0  0  0
  3  2  1  0  0  0
  2  1  1  0  0  0
  1 14  1  0  0  0
 14 15  1  0  0  0
 15 21  1  0  0  0
 19 20  2  0  0  0
 19 22  1  0  0  0
 20 21  1  0  0  0
 20 23  1  0  0  0
 22 24  1  0  0  0
 23 25  1  0  0  0
M  END
> <minimizedAffinity>
-7.80471

> <CNNscore>
0.6091048717

> <CNNaffinity>
6.6840400696

> <CNN_VS>
4.0712814331

> <CNNaffinity_variance>
0.2081260979

$$$$
/media/chris/experiments/cd1a-new-docking/inputs/ligands/5j1a_ligand.pdb


 25 25  0  0  0  0  0  0  0  0999 V2000
  -50.6226   59.8797   64.1878 C   0  0  0  0  0  0  0  0  0  0  0  0
  -51.1775   59.8620   62.7557 C   0  0  0  0  0  0  0  0  0  0  0  0
  -50.6257   58.6690   61.9874 C   0  0  0  0  0  0  0  0  0  0  0  0
  -50.0211   59.1505   60.6680 C   0  0  0  0  0  0  0  0  0  0  0  0
  -50.1353   58.0569   59.6062 C   0  0  0  0  0  0  0  0  0  0  0  0
  -48.6500   55.8544   59.4682 C   0  0  0  0  0  0  0  0  0  0  0  0
  -49.6491   56.7472   60.2296 C   0  0  0  0  0  0  0  0  0  0  0  0
  -48.2049   56.1682   58.0315 C   0  0  0  0  0  0  0  0  0  0  0  0
  -46.6848   56.3833   58.0643 C   0  0  0  0  0  0  0  0  0  0  0  0
  -46.0502   57.7780   57.8476 C   0  0  0  0  0  0  0  0  0  0  0  0
  -46.9113   59.0363   57.6222 C   0  0  0  0  0  0  0  0  0  0  0  0
  -46.2409   59.0423   60.0674 C   0  0  0  0  0  0  0  0  0  0  0  0
  -46.9655   59.8003   58.9522 C   0  0  0  0  0  0  0  0  0  0  0  0
  -50.0046   58.5256   64.6234 C   0  0  0  0  0  0  0  0  0  0  0  0
  -49.4282   58.5537   66.0587 C   0  0  0  0  0  0  0  0  0  0  0  0
  -46.4762   56.3148   66.2283 C   0  0  0  0  0  0  0  0  0  0  0  0
  -45.4221   57.2267   66.3721 C   0  0  0  0  0  0  0  0  0  0  0  0
  -47.7965   56.7697   66.1295 C   0  0  0  0  0  0  0  0  0  0  0  0
  -45.7149   58.5899   66.4104 C   0  0  0  0  0  0  0  0  0  0  0  0
  -47.0311   59.0362   66.3034 C   0  0  0  0  0  0  0  0  0  0  0  0
  -48.0920   58.1375   66.1334 C   0  0  0  0  0  0  0  0  0  0  0  0
  -44.7534   59.5352   66.5496 O   0  0  0  0  0  0  0  0  0  0  0  0
  -47.2691   60.3793   66.3381 O   0  0  0  0  0  0  0  0  0  0  0  0
  -43.8546   59.2817   66.6251 H   0  0  0  0  0  0  0  0  0  0  0  0
  -46.5576   60.9783   66.4521 H   0  0  0  0  0  0  0  0  0  0  0  0
 12 13  1  0  0  0
  9 10  2  0  0  0
  9  8  1  0  0  0
  6  7  2  0  0  0
  6  8  1  0  0  0
 10 11  1  0  0  0
  7  5  1  0  0  0
 16 17  2  0  0  0
 16 18  1  0  0  0
 17 19  1  0  0  0
 18 21  2  0  0  0
 13 11  1  0  0  0
  5  4  1  0  0  0
  4  3  1  0  0  0
  3  2  1  0  0  0
  2  1  1  0  0  0
  1 14  1  0  0  0
 14 15  1  0  0  0
 15 21  1  0  0  0
 19 20  2  0  0  0
 19 22  1  0  0  0
 20 21  1  0  0  0
 20 23  1  0  0  0
 22 24  1  0  0  0
 23 25  1  0  0  0
M  END
> <minimizedAffinity>
-8.32042

> <CNNscore>
0.5161431432

> <CNNaffinity>
6.4225540161

> <CNN_VS>
3.3149571419

> <CNNaffinity_variance>
0.3158089519

$$$$
/media/chris/experiments/cd1a-new-docking/inputs/ligands/5j1a_ligand.pdb


 25 25  0  0  0  0  0  0  0  0999 V2000
  -50.7837   59.7543   62.3913 C   0  0  0  0  0  0  0  0  0  0  0  0
  -50.8728   59.8547   63.9213 C   0  0  0  0  0  0  0  0  0  0  0  0
  -50.1721   58.6703   64.5727 C   0  0  0  0  0  0  0  0  0  0  0  0
  -50.0936   58.8948   66.0831 C   0  0  0  0  0  0  0  0  0  0  0  0
  -48.9807   59.8902   66.4105 C   0  0  0  0  0  0  0  0  0  0  0  0
  -46.4844   59.1413   65.8775 C   0  0  0  0  0  0  0  0  0  0  0  0
  -47.7313   59.0892   66.7818 C   0  0  0  0  0  0  0  0  0  0  0  0
  -46.4826   59.8812   64.5310 C   0  0  0  0  0  0  0  0  0  0  0  0
  -46.8166   58.8480   63.4451 C   0  0  0  0  0  0  0  0  0  0  0  0
  -46.3178   59.0007   61.9882 C   0  0  0  0  0  0  0  0  0  0  0  0
  -45.4270   60.1811   61.5539 C   0  0  0  0  0  0  0  0  0  0  0  0
  -46.0396   62.6014   61.9962 C   0  0  0  0  0  0  0  0  0  0  0  0
  -46.3557   61.3448   61.1812 C   0  0  0  0  0  0  0  0  0  0  0  0
  -50.2074   58.4019   61.8974 C   0  0  0  0  0  0  0  0  0  0  0  0
  -50.3959   58.1787   60.3783 C   0  0  0  0  0  0  0  0  0  0  0  0
  -47.4048   59.1124   58.3940 C   0  0  0  0  0  0  0  0  0  0  0  0
  -46.7988   57.8689   58.1709 C   0  0  0  0  0  0  0  0  0  0  0  0
  -48.5967   59.1977   59.1234 C   0  0  0  0  0  0  0  0  0  0  0  0
  -47.4033   56.7249   58.6916 C   0  0  0  0  0  0  0  0  0  0  0  0
  -48.5858   56.8180   59.4238 C   0  0  0  0  0  0  0  0  0  0  0  0
  -49.1888   58.0568   59.6765 C   0  0  0  0  0  0  0  0  0  0  0  0
  -46.8823   55.4856   58.5182 O   0  0  0  0  0  0  0  0  0  0  0  0
  -49.1370   55.6730   59.9206 O   0  0  0  0  0  0  0  0  0  0  0  0
  -46.0886   55.3748   58.0328 H   0  0  0  0  0  0  0  0  0  0  0  0
  -48.7317   54.8455   59.7499 H   0  0  0  0  0  0  0  0  0  0  0  0
 12 13  1  0  0  0
  9 10  2  0  0  0
  9  8  1  0  0  0
  6  7  2  0  0  0
  6  8  1  0  0  0
 10 11  1  0  0  0
  7  5  1  0  0  0
 16 17  2  0  0  0
 16 18  1  0  0  0
 17 19  1  0  0  0
 18 21  2  0  0  0
 13 11  1  0  0  0
  5  4  1  0  0  0
  4  3  1  0  0  0
  3  2  1  0  0  0
  2  1  1  0  0  0
  1 14  1  0  0  0
 14 15  1  0  0  0
 15 21  1  0  0  0
 19 20  2  0  0  0
 19 22  1  0  0  0
 20 21  1  0  0  0
 20 23  1  0  0  0
 22 24  1  0  0  0
 23 25  1  0  0  0
M  END
> <minimizedAffinity>
-7.60630

> <CNNscore>
0.4507134557

> <CNNaffinity>
6.6876516342

> <CNN_VS>
3.0142145157

> <CNNaffinity_variance>
0.2593072057

$$$$
/media/chris/experiments/cd1a-new-docking/inputs/ligands/5j1a_ligand.pdb


 25 25  0  0  0  0  0  0  0  0999 V2000
  -49.6848   58.0725   65.9862 C   0  0  0  0  0  0  0  0  0  0  0  0
  -50.0028   58.3086   64.5022 C   0  0  0  0  0  0  0  0  0  0  0  0
  -50.7899   59.6001   64.3270 C   0  0  0  0  0  0  0  0  0  0  0  0
  -50.9195   59.9174   62.8369 C   0  0  0  0  0  0  0  0  0  0  0  0
  -49.5931   59.6532   62.1247 C   0  0  0  0  0  0  0  0  0  0  0  0
  -48.3663   60.4156   59.8909 C   0  0  0  0  0  0  0  0  0  0  0  0
  -49.5897   60.4631   60.8269 C   0  0  0  0  0  0  0  0  0  0  0  0
  -47.0767   59.6712   60.2698 C   0  0  0  0  0  0  0  0  0  0  0  0
  -46.4935   59.0863   58.9752 C   0  0  0  0  0  0  0  0  0  0  0  0
  -46.6429   57.5893   58.6129 C   0  0  0  0  0  0  0  0  0  0  0  0
  -47.4172   56.6083   59.5150 C   0  0  0  0  0  0  0  0  0  0  0  0
  -49.8288   56.6015   60.2978 C   0  0  0  0  0  0  0  0  0  0  0  0
  -48.8910   56.6583   59.0894 C   0  0  0  0  0  0  0  0  0  0  0  0
  -48.1665   57.9459   66.2760 C   0  0  0  0  0  0  0  0  0  0  0  0
  -47.5252   59.2713   66.7506 C   0  0  0  0  0  0  0  0  0  0  0  0
  -46.6023   61.3225   63.8016 C   0  0  0  0  0  0  0  0  0  0  0  0
  -45.2203   61.1092   63.7147 C   0  0  0  0  0  0  0  0  0  0  0  0
  -47.3514   60.7043   64.8099 C   0  0  0  0  0  0  0  0  0  0  0  0
  -44.6099   60.2755   64.6515 C   0  0  0  0  0  0  0  0  0  0  0  0
  -45.3605   59.6695   65.6576 C   0  0  0  0  0  0  0  0  0  0  0  0
  -46.7384   59.8941   65.7722 C   0  0  0  0  0  0  0  0  0  0  0  0
  -43.2795   60.0162   64.6347 O   0  0  0  0  0  0  0  0  0  0  0  0
  -44.7193   58.8680   66.5567 O   0  0  0  0  0  0  0  0  0  0  0  0
  -42.7353   60.4017   63.9766 H   0  0  0  0  0  0  0  0  0  0  0  0
  -43.7976   58.7193   66.4777 H   0  0  0  0  0  0  0  0  0  0  0  0
 12 13  1  0  0  0
  9 10  2  0  0  0
  9  8  1  0  0  0
  6  7  2  0  0  0
  6  8  1  0  0  0
 10 11  1  0  0  0
  7  5  1  0  0  0
 16 17  2  0  0  0
 16 18  1  0  0  0
 17 19  1  0  0  0
 18 21  2  0  0  0
 13 11  1  0  0  0
  5  4  1  0  0  0
  4  3  1  0  0  0
  3  2  1  0  0  0
  2  1  1  0  0  0
  1 14  1  0  0  0
 14 15  1  0  0  0
 15 21  1  0  0  0
 19 20  2  0  0  0
 19 22  1  0  0  0
 20 21  1  0  0  0
 20 23  1  0  0  0
 22 24  1  0  0  0
 23 25  1  0  0  0
M  END
> <minimizedAffinity>
-7.40332

> <CNNscore>
0.4128102362

> <CNNaffinity>
6.4083375931

> <CNN_VS>
2.6454274654

> <CNNaffinity_variance>
0.1424957812

$$$$
/media/chris/experiments/cd1a-new-docking/inputs/ligands/5j1a_ligand.pdb


 25 25  0  0  0  0  0  0  0  0999 V2000
  -45.5714   57.5626   59.3357 C   0  0  0  0  0  0  0  0  0  0  0  0
  -46.1785   57.9330   57.9744 C   0  0  0  0  0  0  0  0  0  0  0  0
  -47.3631   58.8714   58.1592 C   0  0  0  0  0  0  0  0  0  0  0  0
  -48.6639   58.0908   57.9680 C   0  0  0  0  0  0  0  0  0  0  0  0
  -49.6709   58.4713   59.0533 C   0  0  0  0  0  0  0  0  0  0  0  0
  -49.5474   60.0786   61.1693 C   0  0  0  0  0  0  0  0  0  0  0  0
  -49.1904   59.7708   59.7020 C   0  0  0  0  0  0  0  0  0  0  0  0
  -50.4837   59.1769   61.9884 C   0  0  0  0  0  0  0  0  0  0  0  0
  -51.1777   60.0689   63.0281 C   0  0  0  0  0  0  0  0  0  0  0  0
  -50.7656   60.0606   64.5197 C   0  0  0  0  0  0  0  0  0  0  0  0
  -49.6105   59.1820   65.0387 C   0  0  0  0  0  0  0  0  0  0  0  0
  -47.6192   60.5775   64.3204 C   0  0  0  0  0  0  0  0  0  0  0  0
  -48.4874   60.1228   65.4962 C   0  0  0  0  0  0  0  0  0  0  0  0
  -45.9158   58.5764   60.4577 C   0  0  0  0  0  0  0  0  0  0  0  0
  -44.9128   58.5447   61.6351 C   0  0  0  0  0  0  0  0  0  0  0  0
  -44.6521   62.2348   61.9017 C   0  0  0  0  0  0  0  0  0  0  0  0
  -43.4385   62.3964   62.5831 C   0  0  0  0  0  0  0  0  0  0  0  0
  -45.1245   60.9537   61.5923 C   0  0  0  0  0  0  0  0  0  0  0  0
  -42.7174   61.2596   62.9478 C   0  0  0  0  0  0  0  0  0  0  0  0
  -43.1976   59.9869   62.6436 C   0  0  0  0  0  0  0  0  0  0  0  0
  -44.4215   59.8096   61.9858 C   0  0  0  0  0  0  0  0  0  0  0  0
  -41.5346   61.3305   63.6062 O   0  0  0  0  0  0  0  0  0  0  0  0
  -42.4620   58.9035   63.0271 O   0  0  0  0  0  0  0  0  0  0  0  0
  -41.1731   62.1651   63.8315 H   0  0  0  0  0  0  0  0  0  0  0  0
  -41.6435   59.0249   63.4668 H   0  0  0  0  0  0  0  0  0  0  0  0
 12 13  1  0  0  0
  9 10  2  0  0  0
  9  8  1  0  0  0
  6  7  2  0  0  0
  6  8  1  0  0  0
 10 11  1  0  0  0
  7  5  1  0  0  0
 16 17  2  0  0  0
 16 18  1  0  0  0
 17 19  1  0  0  0
 18 21  2  0  0  0
 13 11  1  0  0  0
  5  4  1  0  0  0
  4  3  1  0  0  0
  3  2  1  0  0  0
  2  1  1  0  0  0
  1 14  1  0  0  0
 14 15  1  0  0  0
 15 21  1  0  0  0
 19 20  2  0  0  0
 19 22  1  0  0  0
 20 21  1  0  0  0
 20 23  1  0  0  0
 22 24  1  0  0  0
 23 25  1  0  0  0
M  END
> <minimizedAffinity>
-8.12927

> <CNNscore>
0.3877397776

> <CNNaffinity>
6.1784791946

> <CNN_VS>
2.3956420422

> <CNNaffinity_variance>
0.1704891622

$$$$
/media/chris/experiments/cd1a-new-docking/inputs/ligands/5j1a_ligand.pdb


 25 25  0  0  0  0  0  0  0  0999 V2000
  -47.5162   57.5613   65.1270 C   0  0  0  0  0  0  0  0  0  0  0  0
  -48.4044   58.0567   66.2779 C   0  0  0  0  0  0  0  0  0  0  0  0
  -49.8690   58.0414   65.8624 C   0  0  0  0  0  0  0  0  0  0  0  0
  -50.4160   59.4692   65.8778 C   0  0  0  0  0  0  0  0  0  0  0  0
  -50.0153   60.2006   64.5969 C   0  0  0  0  0  0  0  0  0  0  0  0
  -50.9991   59.0779   62.3950 C   0  0  0  0  0  0  0  0  0  0  0  0
  -51.1555   60.0386   63.5898 C   0  0  0  0  0  0  0  0  0  0  0  0
  -49.6777   58.3523   62.0982 C   0  0  0  0  0  0  0  0  0  0  0  0
  -49.8390   57.6532   60.7405 C   0  0  0  0  0  0  0  0  0  0  0  0
  -49.3279   58.2897   59.4258 C   0  0  0  0  0  0  0  0  0  0  0  0
  -48.5957   59.6459   59.4106 C   0  0  0  0  0  0  0  0  0  0  0  0
  -46.3430   58.4837   59.3548 C   0  0  0  0  0  0  0  0  0  0  0  0
  -47.2853   59.4519   58.6354 C   0  0  0  0  0  0  0  0  0  0  0  0
  -46.4127   58.5736   64.7236 C   0  0  0  0  0  0  0  0  0  0  0  0
  -46.1525   58.6145   63.1992 C   0  0  0  0  0  0  0  0  0  0  0  0
  -46.5312   62.0681   61.9011 C   0  0  0  0  0  0  0  0  0  0  0  0
  -45.2011   62.4451   61.6730 C   0  0  0  0  0  0  0  0  0  0  0  0
  -46.8296   60.7958   62.4032 C   0  0  0  0  0  0  0  0  0  0  0  0
  -44.1865   61.5318   61.9590 C   0  0  0  0  0  0  0  0  0  0  0  0
  -44.4903   60.2695   62.4662 C   0  0  0  0  0  0  0  0  0  0  0  0
  -45.8135   59.8885   62.7234 C   0  0  0  0  0  0  0  0  0  0  0  0
  -42.8759   61.8180   61.7641 O   0  0  0  0  0  0  0  0  0  0  0  0
  -43.4646   59.4119   62.7385 O   0  0  0  0  0  0  0  0  0  0  0  0
  -42.6245   62.6545   61.4248 H   0  0  0  0  0  0  0  0  0  0  0  0
  -42.5803   59.6692   62.5653 H   0  0  0  0  0  0  0  0  0  0  0  0
 12 13  1  0  0  0
  9 10  2  0  0  0
  9  8  1  0  0  0
  6  7  2  0  0  0
  6  8  1  0  0  0
 10 11  1  0  0  0
  7  5  1  0  0  0
 16 17  2  0  0  0
 16 18  1  0  0  0
 17 19  1  0  0  0
 18 21  2  0  0  0
 13 11  1  0  0  0
  5  4  1  0  0  0
  4  3  1  0  0  0
  3  2  1  0  0  0
  2  1  1  0  0  0
  1 14  1  0  0  0
 14 15  1  0  0  0
 15 21  1  0  0  0
 19 20  2  0  0  0
 19 22  1  0  0  0
 20 21  1  0  0  0
 20 23  1  0  0  0
 22 24  1  0  0  0
 23 25  1  0  0  0
M  END
> <minimizedAffinity>
-7.23553

> <CNNscore>
0.3833314180

> <CNNaffinity>
6.3949251175

> <CNN_VS>
2.4513757229

> <CNNaffinity_variance>
0.1673121899

$$$$
/media/chris/experiments/cd1a-new-docking/inputs/ligands/5j1a_ligand.pdb


 25 25  0  0  0  0  0  0  0  0999 V2000
  -35.8453   57.9347   63.7417 C   0  0  0  0  0  0  0  0  0  0  0  0
  -35.0361   57.8859   62.4372 C   0  0  0  0  0  0  0  0  0  0  0  0
  -35.9382   57.5197   61.2666 C   0  0  0  0  0  0  0  0  0  0  0  0
  -37.3720   57.3411   61.7670 C   0  0  0  0  0  0  0  0  0  0  0  0
  -38.3452   58.0863   60.8537 C   0  0  0  0  0  0  0  0  0  0  0  0
  -38.9157   60.4537   61.9245 C   0  0  0  0  0  0  0  0  0  0  0  0
  -38.0576   59.5830   60.9859 C   0  0  0  0  0  0  0  0  0  0  0  0
  -40.1472   59.8972   62.6556 C   0  0  0  0  0  0  0  0  0  0  0  0
  -39.6437   59.2072   63.9318 C   0  0  0  0  0  0  0  0  0  0  0  0
  -40.3298   57.9439   64.5048 C   0  0  0  0  0  0  0  0  0  0  0  0
  -41.5360   57.2866   63.8058 C   0  0  0  0  0  0  0  0  0  0  0  0
  -41.5229   56.4412   61.4155 C   0  0  0  0  0  0  0  0  0  0  0  0
  -40.9860   56.2338   62.8338 C   0  0  0  0  0  0  0  0  0  0  0  0
  -35.4390   59.1067   64.6726 C   0  0  0  0  0  0  0  0  0  0  0  0
  -36.1142   60.4463   64.2943 C   0  0  0  0  0  0  0  0  0  0  0  0
  -33.8303   63.1205   65.4724 C   0  0  0  0  0  0  0  0  0  0  0  0
  -34.5625   63.6933   66.5207 C   0  0  0  0  0  0  0  0  0  0  0  0
  -34.3562   62.0444   64.7476 C   0  0  0  0  0  0  0  0  0  0  0  0
  -35.8211   63.1734   66.8222 C   0  0  0  0  0  0  0  0  0  0  0  0
  -36.3421   62.1070   66.0912 C   0  0  0  0  0  0  0  0  0  0  0  0
  -35.6324   61.5415   65.0242 C   0  0  0  0  0  0  0  0  0  0  0  0
  -36.5908   63.6691   67.8219 O   0  0  0  0  0  0  0  0  0  0  0  0
  -37.5808   61.6365   66.4168 O   0  0  0  0  0  0  0  0  0  0  0  0
  -36.2815   64.3860   68.3399 H   0  0  0  0  0  0  0  0  0  0  0  0
  -38.0534   62.0165   67.1312 H   0  0  0  0  0  0  0  0  0  0  0  0
 12 13  1  0  0  0
  9 10  2  0  0  0
  9  8  1  0  0  0
  6  7  2  0  0  0
  6  8  1  0  0  0
 10 11  1  0  0  0
  7  5  1  0  0  0
 16 17  2  0  0  0
 16 18  1  0  0  0
 17 19  1  0  0  0
 18 21  2  0  0  0
 13 11  1  0  0  0
  5  4  1  0  0  0
  4  3  1  0  0  0
  3  2  1  0  0  0
  2  1  1  0  0  0
  1 14  1  0  0  0
 14 15  1  0  0  0
 15 21  1  0  0  0
 19 20  2  0  0  0
 19 22  1  0  0  0
 20 21  1  0  0  0
 20 23  1  0  0  0
 22 24  1  0  0  0
 23 25  1  0  0  0
M  END
> <minimizedAffinity>
-7.06624

> <CNNscore>
0.3311139941

> <CNNaffinity>
5.9204263687

> <CNN_VS>
1.9603359699

> <CNNaffinity_variance>
0.2804460227

$$$$
/media/chris/experiments/cd1a-new-docking/inputs/ligands/5j1a_ligand.pdb


 25 25  0  0  0  0  0  0  0  0999 V2000
  -46.3147   61.0296   61.5474 C   0  0  0  0  0  0  0  0  0  0  0  0
  -46.7388   60.1593   60.3550 C   0  0  0  0  0  0  0  0  0  0  0  0
  -46.0044   58.8259   60.3834 C   0  0  0  0  0  0  0  0  0  0  0  0
  -46.0759   58.1775   59.0004 C   0  0  0  0  0  0  0  0  0  0  0  0
  -47.0851   58.9179   58.1231 C   0  0  0  0  0  0  0  0  0  0  0  0
  -49.4550   57.7098   58.1462 C   0  0  0  0  0  0  0  0  0  0  0  0
  -48.0479   57.8812   57.5412 C   0  0  0  0  0  0  0  0  0  0  0  0
  -49.8986   58.4650   59.4086 C   0  0  0  0  0  0  0  0  0  0  0  0
  -49.5062   57.6006   60.6157 C   0  0  0  0  0  0  0  0  0  0  0  0
  -49.9727   57.9395   62.0517 C   0  0  0  0  0  0  0  0  0  0  0  0
  -50.8878   59.1444   62.3457 C   0  0  0  0  0  0  0  0  0  0  0  0
  -50.0053   58.6113   64.6621 C   0  0  0  0  0  0  0  0  0  0  0  0
  -50.4734   59.7141   63.7093 C   0  0  0  0  0  0  0  0  0  0  0  0
  -47.0024   60.6259   62.8775 C   0  0  0  0  0  0  0  0  0  0  0  0
  -46.0559   60.7004   64.0989 C   0  0  0  0  0  0  0  0  0  0  0  0
  -47.1240   58.8726   67.1443 C   0  0  0  0  0  0  0  0  0  0  0  0
  -46.5622   57.6054   66.9400 C   0  0  0  0  0  0  0  0  0  0  0  0
  -46.9444   59.8871   66.1963 C   0  0  0  0  0  0  0  0  0  0  0  0
  -45.8277   57.3767   65.7766 C   0  0  0  0  0  0  0  0  0  0  0  0
  -45.6596   58.3890   64.8332 C   0  0  0  0  0  0  0  0  0  0  0  0
  -46.2370   59.6526   65.0119 C   0  0  0  0  0  0  0  0  0  0  0  0
  -45.2505   56.1804   65.5058 O   0  0  0  0  0  0  0  0  0  0  0  0
  -44.9398   58.1171   63.7063 O   0  0  0  0  0  0  0  0  0  0  0  0
  -45.3371   55.4707   66.1114 H   0  0  0  0  0  0  0  0  0  0  0  0
  -44.5544   57.2711   63.5893 H   0  0  0  0  0  0  0  0  0  0  0  0
 12 13  1  0  0  0
  9 10  2  0  0  0
  9  8  1  0  0  0
  6  7  2  0  0  0
  6  8  1  0  0  0
 10 11  1  0  0  0
  7  5  1  0  0  0
 16 17  2  0  0  0
 16 18  1  0  0  0
 17 19  1  0  0  0
 18 21  2  0  0  0
 13 11  1  0  0  0
  5  4  1  0  0  0
  4  3  1  0  0  0
  3  2  1  0  0  0
  2  1  1  0  0  0
  1 14  1  0  0  0
 14 15  1  0  0  0
 15 21  1  0  0  0
 19 20  2  0  0  0
 19 22  1  0  0  0
 20 21  1  0  0  0
 20 23  1  0  0  0
 22 24  1  0  0  0
 23 25  1  0  0  0
M  END
> <minimizedAffinity>
-7.60182

> <CNNscore>
0.3257161677

> <CNNaffinity>
6.4033455849

> <CNN_VS>
2.0856730938

> <CNNaffinity_variance>
0.2601312101

$$$$
/media/chris/experiments/cd1a-new-docking/inputs/ligands/5j1a_ligand.pdb


 25 25  0  0  0  0  0  0  0  0999 V2000
  -45.7225   57.2475   58.9846 C   0  0  0  0  0  0  0  0  0  0  0  0
  -46.6690   57.0143   57.7977 C   0  0  0  0  0  0  0  0  0  0  0  0
  -47.7028   58.1291   57.7163 C   0  0  0  0  0  0  0  0  0  0  0  0
  -49.1054   57.5205   57.6985 C   0  0  0  0  0  0  0  0  0  0  0  0
  -49.8294   57.8272   59.0093 C   0  0  0  0  0  0  0  0  0  0  0  0
  -49.6937   59.7842   60.8060 C   0  0  0  0  0  0  0  0  0  0  0  0
  -49.5802   59.2982   59.3479 C   0  0  0  0  0  0  0  0  0  0  0  0
  -50.1729   58.8634   61.9387 C   0  0  0  0  0  0  0  0  0  0  0  0
  -51.1750   59.6653   62.7820 C   0  0  0  0  0  0  0  0  0  0  0  0
  -50.7955   60.2590   64.1597 C   0  0  0  0  0  0  0  0  0  0  0  0
  -49.3783   60.1090   64.7466 C   0  0  0  0  0  0  0  0  0  0  0  0
  -50.0078   57.9928   65.9932 C   0  0  0  0  0  0  0  0  0  0  0  0
  -49.5183   59.4376   66.1197 C   0  0  0  0  0  0  0  0  0  0  0  0
  -45.9966   58.5759   59.7365 C   0  0  0  0  0  0  0  0  0  0  0  0
  -46.4540   58.3639   61.1991 C   0  0  0  0  0  0  0  0  0  0  0  0
  -46.0916   61.9085   62.2289 C   0  0  0  0  0  0  0  0  0  0  0  0
  -45.7769   61.7898   63.5891 C   0  0  0  0  0  0  0  0  0  0  0  0
  -46.3093   60.7651   61.4509 C   0  0  0  0  0  0  0  0  0  0  0  0
  -45.6896   60.5153   64.1488 C   0  0  0  0  0  0  0  0  0  0  0  0
  -45.9155   59.3814   63.3701 C   0  0  0  0  0  0  0  0  0  0  0  0
  -46.2562   59.4858   62.0155 C   0  0  0  0  0  0  0  0  0  0  0  0
  -45.3878   60.3152   65.4551 O   0  0  0  0  0  0  0  0  0  0  0  0
  -45.8270   58.1554   63.9624 O   0  0  0  0  0  0  0  0  0  0  0  0
  -45.2280   61.0480   66.0166 H   0  0  0  0  0  0  0  0  0  0  0  0
  -45.5987   58.0883   64.8688 H   0  0  0  0  0  0  0  0  0  0  0  0
 12 13  1  0  0  0
  9 10  2  0  0  0
  9  8  1  0  0  0
  6  7  2  0  0  0
  6  8  1  0  0  0
 10 11  1  0  0  0
  7  5  1  0  0  0
 16 17  2  0  0  0
 16 18  1  0  0  0
 17 19  1  0  0  0
 18 21  2  0  0  0
 13 11  1  0  0  0
  5  4  1  0  0  0
  4  3  1  0  0  0
  3  2  1  0  0  0
  2  1  1  0  0  0
  1 14  1  0  0  0
 14 15  1  0  0  0
 15 21  1  0  0  0
 19 20  2  0  0  0
 19 22  1  0  0  0
 20 21  1  0  0  0
 20 23  1  0  0  0
 22 24  1  0  0  0
 23 25  1  0  0  0
M  END
> <minimizedAffinity>
-7.69937

> <CNNscore>
0.3113287687

> <CNNaffinity>
6.1933116913

> <CNN_VS>
1.9281561375

> <CNNaffinity_variance>
0.2143371999

$$$$
