/media/chris/experiments/cd1a-new-docking/inputs/ligands/5j1a_ligand.pdb


 25 25  0  0  0  0  0  0  0  0999 V2000
  -49.9719   59.2604   65.9858 C   0  0  0  0  0  0  0  0  0  0  0  0
  -49.8898   59.7945   64.5481 C   0  0  0  0  0  0  0  0  0  0  0  0
  -49.9215   58.6438   63.5517 C   0  0  0  0  0  0  0  0  0  0  0  0
  -50.8286   59.0136   62.3777 C   0  0  0  0  0  0  0  0  0  0  0  0
  -50.0714   58.8612   61.0586 C   0  0  0  0  0  0  0  0  0  0  0  0
  -49.4379   56.8364   59.4539 C   0  0  0  0  0  0  0  0  0  0  0  0
  -49.7755   57.3739   60.8584 C   0  0  0  0  0  0  0  0  0  0  0  0
  -49.5047   57.7246   58.2020 C   0  0  0  0  0  0  0  0  0  0  0  0
  -48.6414   57.0541   57.1235 C   0  0  0  0  0  0  0  0  0  0  0  0
  -47.1389   57.3842   56.9550 C   0  0  0  0  0  0  0  0  0  0  0  0
  -46.4164   58.3788   57.8846 C   0  0  0  0  0  0  0  0  0  0  0  0
  -45.9606   58.2474   60.3752 C   0  0  0  0  0  0  0  0  0  0  0  0
  -45.7745   57.5660   59.0174 C   0  0  0  0  0  0  0  0  0  0  0  0
  -48.6506   59.4294   66.7798 C   0  0  0  0  0  0  0  0  0  0  0  0
  -47.6874   58.2292   66.6207 C   0  0  0  0  0  0  0  0  0  0  0  0
  -44.9258   60.1214   65.0244 C   0  0  0  0  0  0  0  0  0  0  0  0
  -43.8053   59.3527   65.3661 C   0  0  0  0  0  0  0  0  0  0  0  0
  -46.2040   59.7343   65.4443 C   0  0  0  0  0  0  0  0  0  0  0  0
  -43.9896   58.2020   66.1324 C   0  0  0  0  0  0  0  0  0  0  0  0
  -45.2641   57.8267   66.5539 C   0  0  0  0  0  0  0  0  0  0  0  0
  -46.3899   58.5995   66.2418 C   0  0  0  0  0  0  0  0  0  0  0  0
  -42.9586   57.4034   66.5024 O   0  0  0  0  0  0  0  0  0  0  0  0
  -45.3953   56.6975   67.3085 O   0  0  0  0  0  0  0  0  0  0  0  0
  -42.0841   57.6164   66.2420 H   0  0  0  0  0  0  0  0  0  0  0  0
  -44.6406   56.1823   67.5159 H   0  0  0  0  0  0  0  0  0  0  0  0
 12 13  1  0  0  0
  9 10  2  0  0  0
  9  8  1  0  0  0
  6  7  2  0  0  0
  6  8  1  0  0  0
 10 11  1  0  0  0
  7  5  1  0  0  0
 16 17  2  0  0  0
 16 18  1  0  0  0
 17 19  1  0  0  0
 18 21  2  0  0  0
 13 11  1  0  0  0
  5  4  1  0  0  0
  4  3  1  0  0  0
  3  2  1  0  0  0
  2  1  1  0  0  0
  1 14  1  0  0  0
 14 15  1  0  0  0
 15 21  1  0  0  0
 19 20  2  0  0  0
 19 22  1  0  0  0
 20 21  1  0  0  0
 20 23  1  0  0  0
 22 24  1  0  0  0
 23 25  1  0  0  0
M  END
> <minimizedAffinity>
-7.96643

> <CNNscore>
0.4898023307

> <CNNaffinity>
6.4582319260

> <CNN_VS>
3.1632571220

> <CNNaffinity_variance>
0.2660759389

$$$$
/media/chris/experiments/cd1a-new-docking/inputs/ligands/5j1a_ligand.pdb


 25 25  0  0  0  0  0  0  0  0999 V2000
  -48.4819   56.9147   58.3669 C   0  0  0  0  0  0  0  0  0  0  0  0
  -49.8503   57.6121   58.3608 C   0  0  0  0  0  0  0  0  0  0  0  0
  -50.2132   58.0812   59.7631 C   0  0  0  0  0  0  0  0  0  0  0  0
  -49.3526   57.3382   60.7856 C   0  0  0  0  0  0  0  0  0  0  0  0
  -49.5580   57.9331   62.1785 C   0  0  0  0  0  0  0  0  0  0  0  0
  -50.9316   59.9782   63.1822 C   0  0  0  0  0  0  0  0  0  0  0  0
  -50.7511   58.8878   62.1080 C   0  0  0  0  0  0  0  0  0  0  0  0
  -50.0145   60.0732   64.4112 C   0  0  0  0  0  0  0  0  0  0  0  0
  -50.5513   59.0836   65.4555 C   0  0  0  0  0  0  0  0  0  0  0  0
  -49.6463   58.0121   66.1096 C   0  0  0  0  0  0  0  0  0  0  0  0
  -48.1459   57.9019   65.7752 C   0  0  0  0  0  0  0  0  0  0  0  0
  -46.3874   59.7033   66.0771 C   0  0  0  0  0  0  0  0  0  0  0  0
  -47.3856   58.7794   66.7791 C   0  0  0  0  0  0  0  0  0  0  0  0
  -47.4930   57.4941   57.3224 C   0  0  0  0  0  0  0  0  0  0  0  0
  -46.2744   58.1992   57.9639 C   0  0  0  0  0  0  0  0  0  0  0  0
  -47.7082   61.1734   59.6530 C   0  0  0  0  0  0  0  0  0  0  0  0
  -47.2753   60.9996   60.9743 C   0  0  0  0  0  0  0  0  0  0  0  0
  -47.3657   60.2396   58.6678 C   0  0  0  0  0  0  0  0  0  0  0  0
  -46.5032   59.8805   61.2856 C   0  0  0  0  0  0  0  0  0  0  0  0
  -46.1725   58.9506   60.3014 C   0  0  0  0  0  0  0  0  0  0  0  0
  -46.6200   59.0978   58.9822 C   0  0  0  0  0  0  0  0  0  0  0  0
  -46.0435   59.6414   62.5382 O   0  0  0  0  0  0  0  0  0  0  0  0
  -45.4218   57.8671   60.6539 O   0  0  0  0  0  0  0  0  0  0  0  0
  -46.2411   60.2394   63.2319 H   0  0  0  0  0  0  0  0  0  0  0  0
  -45.1237   57.7709   61.5370 H   0  0  0  0  0  0  0  0  0  0  0  0
 12 13  1  0  0  0
  9 10  2  0  0  0
  9  8  1  0  0  0
  6  7  2  0  0  0
  6  8  1  0  0  0
 10 11  1  0  0  0
  7  5  1  0  0  0
 16 17  2  0  0  0
 16 18  1  0  0  0
 17 19  1  0  0  0
 18 21  2  0  0  0
 13 11  1  0  0  0
  5  4  1  0  0  0
  4  3  1  0  0  0
  3  2  1  0  0  0
  2  1  1  0  0  0
  1 14  1  0  0  0
 14 15  1  0  0  0
 15 21  1  0  0  0
 19 20  2  0  0  0
 19 22  1  0  0  0
 20 21  1  0  0  0
 20 23  1  0  0  0
 22 24  1  0  0  0
 23 25  1  0  0  0
M  END
> <minimizedAffinity>
-7.94435

> <CNNscore>
0.4888119400

> <CNNaffinity>
6.5795769691

> <CNN_VS>
3.2161757946

> <CNNaffinity_variance>
0.2366553247

$$$$
/media/chris/experiments/cd1a-new-docking/inputs/ligands/5j1a_ligand.pdb


 25 25  0  0  0  0  0  0  0  0999 V2000
  -48.3143   58.5714   61.8164 C   0  0  0  0  0  0  0  0  0  0  0  0
  -49.2902   58.2566   62.9600 C   0  0  0  0  0  0  0  0  0  0  0  0
  -50.3359   59.3563   63.0831 C   0  0  0  0  0  0  0  0  0  0  0  0
  -50.6460   59.5988   64.5607 C   0  0  0  0  0  0  0  0  0  0  0  0
  -49.7131   58.7648   65.4385 C   0  0  0  0  0  0  0  0  0  0  0  0
  -48.0000   60.6375   66.2351 C   0  0  0  0  0  0  0  0  0  0  0  0
  -49.1664   59.6768   66.5382 C   0  0  0  0  0  0  0  0  0  0  0  0
  -47.2688   60.6332   64.8838 C   0  0  0  0  0  0  0  0  0  0  0  0
  -45.7876   60.3473   65.1703 C   0  0  0  0  0  0  0  0  0  0  0  0
  -45.2189   58.9080   65.1832 C   0  0  0  0  0  0  0  0  0  0  0  0
  -46.1014   57.6830   64.8735 C   0  0  0  0  0  0  0  0  0  0  0  0
  -47.5673   56.0191   66.1026 C   0  0  0  0  0  0  0  0  0  0  0  0
  -46.3613   56.9565   66.2003 C   0  0  0  0  0  0  0  0  0  0  0  0
  -48.7647   59.7663   60.9366 C   0  0  0  0  0  0  0  0  0  0  0  0
  -49.3297   59.3318   59.5634 C   0  0  0  0  0  0  0  0  0  0  0  0
  -46.4843   58.4478   57.3550 C   0  0  0  0  0  0  0  0  0  0  0  0
  -46.6498   57.0652   57.1997 C   0  0  0  0  0  0  0  0  0  0  0  0
  -47.3816   59.1842   58.1377 C   0  0  0  0  0  0  0  0  0  0  0  0
  -47.7198   56.4414   57.8410 C   0  0  0  0  0  0  0  0  0  0  0  0
  -48.6049   57.1794   58.6252 C   0  0  0  0  0  0  0  0  0  0  0  0
  -48.4366   58.5575   58.8105 C   0  0  0  0  0  0  0  0  0  0  0  0
  -47.9507   55.1096   57.7391 O   0  0  0  0  0  0  0  0  0  0  0  0
  -49.6325   56.5253   59.2400 O   0  0  0  0  0  0  0  0  0  0  0  0
  -47.3817   54.5736   57.2226 H   0  0  0  0  0  0  0  0  0  0  0  0
  -49.7429   55.6033   59.1144 H   0  0  0  0  0  0  0  0  0  0  0  0
 12 13  1  0  0  0
  9 10  2  0  0  0
  9  8  1  0  0  0
  6  7  2  0  0  0
  6  8  1  0  0  0
 10 11  1  0  0  0
  7  5  1  0  0  0
 16 17  2  0  0  0
 16 18  1  0  0  0
 17 19  1  0  0  0
 18 21  2  0  0  0
 13 11  1  0  0  0
  5  4  1  0  0  0
  4  3  1  0  0  0
  3  2  1  0  0  0
  2  1  1  0  0  0
  1 14  1  0  0  0
 14 15  1  0  0  0
 15 21  1  0  0  0
 19 20  2  0  0  0
 19 22  1  0  0  0
 20 21  1  0  0  0
 20 23  1  0  0  0
 22 24  1  0  0  0
 23 25  1  0  0  0
M  END
> <minimizedAffinity>
-7.82980

> <CNNscore>
0.4821730554

> <CNNaffinity>
6.6664094925

> <CNN_VS>
3.2143630981

> <CNNaffinity_variance>
0.2110552788

$$$$
/media/chris/experiments/cd1a-new-docking/inputs/ligands/5j1a_ligand.pdb


 25 25  0  0  0  0  0  0  0  0999 V2000
  -48.4469   60.7819   65.2705 C   0  0  0  0  0  0  0  0  0  0  0  0
  -49.1875   59.7182   66.0946 C   0  0  0  0  0  0  0  0  0  0  0  0
  -50.2876   59.0733   65.2627 C   0  0  0  0  0  0  0  0  0  0  0  0
  -50.9643   60.1403   64.4014 C   0  0  0  0  0  0  0  0  0  0  0  0
  -51.1079   59.6431   62.9631 C   0  0  0  0  0  0  0  0  0  0  0  0
  -49.4700   58.1190   61.5242 C   0  0  0  0  0  0  0  0  0  0  0  0
  -50.2639   58.3754   62.8201 C   0  0  0  0  0  0  0  0  0  0  0  0
  -49.5868   59.0394   60.2995 C   0  0  0  0  0  0  0  0  0  0  0  0
  -50.0773   58.1759   59.1282 C   0  0  0  0  0  0  0  0  0  0  0  0
  -49.1510   57.7925   57.9493 C   0  0  0  0  0  0  0  0  0  0  0  0
  -47.6729   58.2268   57.9030 C   0  0  0  0  0  0  0  0  0  0  0  0
  -45.7532   57.6808   59.4665 C   0  0  0  0  0  0  0  0  0  0  0  0
  -46.8456   57.1120   58.5578 C   0  0  0  0  0  0  0  0  0  0  0  0
  -46.9426   60.4643   65.0684 C   0  0  0  0  0  0  0  0  0  0  0  0
  -46.6845   59.4292   63.9479 C   0  0  0  0  0  0  0  0  0  0  0  0
  -45.2638   56.6297   65.9226 C   0  0  0  0  0  0  0  0  0  0  0  0
  -44.0891   56.3373   65.2171 C   0  0  0  0  0  0  0  0  0  0  0  0
  -46.1104   57.6581   65.4917 C   0  0  0  0  0  0  0  0  0  0  0  0
  -43.7850   57.0864   64.0806 C   0  0  0  0  0  0  0  0  0  0  0  0
  -44.6363   58.1037   63.6526 C   0  0  0  0  0  0  0  0  0  0  0  0
  -45.8269   58.3898   64.3330 C   0  0  0  0  0  0  0  0  0  0  0  0
  -42.6676   56.8682   63.3449 O   0  0  0  0  0  0  0  0  0  0  0  0
  -44.3022   58.8049   62.5309 O   0  0  0  0  0  0  0  0  0  0  0  0
  -42.0662   56.1946   63.5948 H   0  0  0  0  0  0  0  0  0  0  0  0
  -43.5052   58.6116   62.0776 H   0  0  0  0  0  0  0  0  0  0  0  0
 12 13  1  0  0  0
  9 10  2  0  0  0
  9  8  1  0  0  0
  6  7  2  0  0  0
  6  8  1  0  0  0
 10 11  1  0  0  0
  7  5  1  0  0  0
 16 17  2  0  0  0
 16 18  1  0  0  0
 17 19  1  0  0  0
 18 21  2  0  0  0
 13 11  1  0  0  0
  5  4  1  0  0  0
  4  3  1  0  0  0
  3  2  1  0  0  0
  2  1  1  0  0  0
  1 14  1  0  0  0
 14 15  1  0  0  0
 15 21  1  0  0  0
 19 20  2  0  0  0
 19 22  1  0  0  0
 20 21  1  0  0  0
 20 23  1  0  0  0
 22 24  1  0  0  0
 23 25  1  0  0  0
M  END
> <minimizedAffinity>
-7.56477

> <CNNscore>
0.4776091576

> <CNNaffinity>
6.4441328049

> <CNN_VS>
3.0777769089

> <CNNaffinity_variance>
0.4075889587

$$$$
/media/chris/experiments/cd1a-new-docking/inputs/ligands/5j1a_ligand.pdb


 25 25  0  0  0  0  0  0  0  0999 V2000
  -48.4875   58.5951   61.6757 C   0  0  0  0  0  0  0  0  0  0  0  0
  -49.0567   59.8258   62.3971 C   0  0  0  0  0  0  0  0  0  0  0  0
  -50.5756   59.8465   62.2933 C   0  0  0  0  0  0  0  0  0  0  0  0
  -51.1771   60.0338   63.6866 C   0  0  0  0  0  0  0  0  0  0  0  0
  -50.0661   60.1204   64.7328 C   0  0  0  0  0  0  0  0  0  0  0  0
  -49.5707   57.9255   66.1517 C   0  0  0  0  0  0  0  0  0  0  0  0
  -50.4295   59.1762   65.8801 C   0  0  0  0  0  0  0  0  0  0  0  0
  -48.4142   57.5129   65.2281 C   0  0  0  0  0  0  0  0  0  0  0  0
  -47.3793   56.7821   66.0959 C   0  0  0  0  0  0  0  0  0  0  0  0
  -46.2863   57.5440   66.8831 C   0  0  0  0  0  0  0  0  0  0  0  0
  -46.1978   59.0826   66.8683 C   0  0  0  0  0  0  0  0  0  0  0  0
  -46.2345   60.5706   64.8159 C   0  0  0  0  0  0  0  0  0  0  0  0
  -45.4681   59.4887   65.5806 C   0  0  0  0  0  0  0  0  0  0  0  0
  -49.5787   57.7053   61.0257 C   0  0  0  0  0  0  0  0  0  0  0  0
  -49.7870   57.9994   59.5212 C   0  0  0  0  0  0  0  0  0  0  0  0
  -46.7791   58.7989   57.5042 C   0  0  0  0  0  0  0  0  0  0  0  0
  -46.3385   57.5271   57.1146 C   0  0  0  0  0  0  0  0  0  0  0  0
  -47.9240   58.9385   58.2978 C   0  0  0  0  0  0  0  0  0  0  0  0
  -47.0592   56.4095   57.5352 C   0  0  0  0  0  0  0  0  0  0  0  0
  -48.1937   56.5553   58.3318 C   0  0  0  0  0  0  0  0  0  0  0  0
  -48.6307   57.8186   58.7503 C   0  0  0  0  0  0  0  0  0  0  0  0
  -46.7007   55.1461   57.1995 O   0  0  0  0  0  0  0  0  0  0  0  0
  -48.8624   55.4332   58.7259 O   0  0  0  0  0  0  0  0  0  0  0  0
  -45.9449   54.9998   56.6654 H   0  0  0  0  0  0  0  0  0  0  0  0
  -48.5680   54.5893   58.4445 H   0  0  0  0  0  0  0  0  0  0  0  0
 12 13  1  0  0  0
  9 10  2  0  0  0
  9  8  1  0  0  0
  6  7  2  0  0  0
  6  8  1  0  0  0
 10 11  1  0  0  0
  7  5  1  0  0  0
 16 17  2  0  0  0
 16 18  1  0  0  0
 17 19  1  0  0  0
 18 21  2  0  0  0
 13 11  1  0  0  0
  5  4  1  0  0  0
  4  3  1  0  0  0
  3  2  1  0  0  0
  2  1  1  0  0  0
  1 14  1  0  0  0
 14 15  1  0  0  0
 15 21  1  0  0  0
 19 20  2  0  0  0
 19 22  1  0  0  0
 20 21  1  0  0  0
 20 23  1  0  0  0
 22 24  1  0  0  0
 23 25  1  0  0  0
M  END
> <minimizedAffinity>
-8.19428

> <CNNscore>
0.4688727260

> <CNNaffinity>
6.7791786194

> <CNN_VS>
3.1785719395

> <CNNaffinity_variance>
0.1365850717

$$$$
/media/chris/experiments/cd1a-new-docking/inputs/ligands/5j1a_ligand.pdb


 25 25  0  0  0  0  0  0  0  0999 V2000
  -49.4893   56.8992   59.0965 C   0  0  0  0  0  0  0  0  0  0  0  0
  -48.5966   55.7101   59.4813 C   0  0  0  0  0  0  0  0  0  0  0  0
  -47.3011   55.7385   58.6818 C   0  0  0  0  0  0  0  0  0  0  0  0
  -47.4231   56.7634   57.5537 C   0  0  0  0  0  0  0  0  0  0  0  0
  -46.4521   57.9209   57.7864 C   0  0  0  0  0  0  0  0  0  0  0  0
  -47.2693   60.2406   58.8000 C   0  0  0  0  0  0  0  0  0  0  0  0
  -47.2367   59.2259   57.6404 C   0  0  0  0  0  0  0  0  0  0  0  0
  -46.6357   59.9390   60.1668 C   0  0  0  0  0  0  0  0  0  0  0  0
  -47.0364   61.0792   61.1141 C   0  0  0  0  0  0  0  0  0  0  0  0
  -45.9830   61.9264   61.8676 C   0  0  0  0  0  0  0  0  0  0  0  0
  -44.4706   61.6957   61.6812 C   0  0  0  0  0  0  0  0  0  0  0  0
  -42.7290   61.4076   63.5010 C   0  0  0  0  0  0  0  0  0  0  0  0
  -43.7556   62.3516   62.8704 C   0  0  0  0  0  0  0  0  0  0  0  0
  -50.1311   57.6058   60.3186 C   0  0  0  0  0  0  0  0  0  0  0  0
  -49.2029   57.6443   61.5558 C   0  0  0  0  0  0  0  0  0  0  0  0
  -51.1776   60.2186   63.3526 C   0  0  0  0  0  0  0  0  0  0  0  0
  -50.6836   60.1105   64.6593 C   0  0  0  0  0  0  0  0  0  0  0  0
  -50.6748   59.3976   62.3361 C   0  0  0  0  0  0  0  0  0  0  0  0
  -49.6882   59.1701   64.9246 C   0  0  0  0  0  0  0  0  0  0  0  0
  -49.1977   58.3505   63.9095 C   0  0  0  0  0  0  0  0  0  0  0  0
  -49.7005   58.4295   62.6045 C   0  0  0  0  0  0  0  0  0  0  0  0
  -49.1562   59.0052   66.1604 O   0  0  0  0  0  0  0  0  0  0  0  0
  -48.2297   57.4395   64.2174 O   0  0  0  0  0  0  0  0  0  0  0  0
  -49.4552   59.5342   66.8737 H   0  0  0  0  0  0  0  0  0  0  0  0
  -47.8951   57.3887   65.0911 H   0  0  0  0  0  0  0  0  0  0  0  0
 12 13  1  0  0  0
  9 10  2  0  0  0
  9  8  1  0  0  0
  6  7  2  0  0  0
  6  8  1  0  0  0
 10 11  1  0  0  0
  7  5  1  0  0  0
 16 17  2  0  0  0
 16 18  1  0  0  0
 17 19  1  0  0  0
 18 21  2  0  0  0
 13 11  1  0  0  0
  5  4  1  0  0  0
  4  3  1  0  0  0
  3  2  1  0  0  0
  2  1  1  0  0  0
  1 14  1  0  0  0
 14 15  1  0  0  0
 15 21  1  0  0  0
 19 20  2  0  0  0
 19 22  1  0  0  0
 20 21  1  0  0  0
 20 23  1  0  0  0
 22 24  1  0  0  0
 23 25  1  0  0  0
M  END
> <minimizedAffinity>
-8.09134

> <CNNscore>
0.4480129182

> <CNNaffinity>
6.4969167709

> <CNN_VS>
2.9107027054

> <CNNaffinity_variance>
0.0399740152

$$$$
/media/chris/experiments/cd1a-new-docking/inputs/ligands/5j1a_ligand.pdb


 25 25  0  0  0  0  0  0  0  0999 V2000
  -48.7006   58.4382   64.3189 C   0  0  0  0  0  0  0  0  0  0  0  0
  -49.8033   58.4782   63.2506 C   0  0  0  0  0  0  0  0  0  0  0  0
  -49.3138   57.8390   61.9583 C   0  0  0  0  0  0  0  0  0  0  0  0
  -50.5027   57.6044   61.0259 C   0  0  0  0  0  0  0  0  0  0  0  0
  -50.0106   57.1992   59.6366 C   0  0  0  0  0  0  0  0  0  0  0  0
  -48.0509   55.6814   58.6711 C   0  0  0  0  0  0  0  0  0  0  0  0
  -49.0271   56.0402   59.8085 C   0  0  0  0  0  0  0  0  0  0  0  0
  -48.1052   56.3727   57.3000 C   0  0  0  0  0  0  0  0  0  0  0  0
  -46.7223   56.9912   57.0487 C   0  0  0  0  0  0  0  0  0  0  0  0
  -46.3598   58.4134   57.5396 C   0  0  0  0  0  0  0  0  0  0  0  0
  -47.3559   59.2751   58.3400 C   0  0  0  0  0  0  0  0  0  0  0  0
  -45.9083   58.4095   60.2330 C   0  0  0  0  0  0  0  0  0  0  0  0
  -46.7011   59.6006   59.6895 C   0  0  0  0  0  0  0  0  0  0  0  0
  -47.2687   58.4843   63.7252 C   0  0  0  0  0  0  0  0  0  0  0  0
  -46.3469   59.5018   64.4384 C   0  0  0  0  0  0  0  0  0  0  0  0
  -46.1714   62.3838   62.1106 C   0  0  0  0  0  0  0  0  0  0  0  0
  -44.8141   62.4005   61.7635 C   0  0  0  0  0  0  0  0  0  0  0  0
  -46.6637   61.4160   62.9944 C   0  0  0  0  0  0  0  0  0  0  0  0
  -43.9682   61.4396   62.3173 C   0  0  0  0  0  0  0  0  0  0  0  0
  -44.4635   60.4838   63.2027 C   0  0  0  0  0  0  0  0  0  0  0  0
  -45.8127   60.4712   63.5788 C   0  0  0  0  0  0  0  0  0  0  0  0
  -42.6443   61.3862   62.0306 O   0  0  0  0  0  0  0  0  0  0  0  0
  -43.5973   59.5684   63.7257 O   0  0  0  0  0  0  0  0  0  0  0  0
  -42.2672   62.0086   61.4405 H   0  0  0  0  0  0  0  0  0  0  0  0
  -42.6952   59.5791   63.4725 H   0  0  0  0  0  0  0  0  0  0  0  0
 12 13  1  0  0  0
  9 10  2  0  0  0
  9  8  1  0  0  0
  6  7  2  0  0  0
  6  8  1  0  0  0
 10 11  1  0  0  0
  7  5  1  0  0  0
 16 17  2  0  0  0
 16 18  1  0  0  0
 17 19  1  0  0  0
 18 21  2  0  0  0
 13 11  1  0  0  0
  5  4  1  0  0  0
  4  3  1  0  0  0
  3  2  1  0  0  0
  2  1  1  0  0  0
  1 14  1  0  0  0
 14 15  1  0  0  0
 15 21  1  0  0  0
 19 20  2  0  0  0
 19 22  1  0  0  0
 20 21  1  0  0  0
 20 23  1  0  0  0
 22 24  1  0  0  0
 23 25  1  0  0  0
M  END
> <minimizedAffinity>
-7.49327

> <CNNscore>
0.4340827465

> <CNNaffinity>
6.3101038933

> <CNN_VS>
2.7391071320

> <CNNaffinity_variance>
0.1808411628

$$$$
/media/chris/experiments/cd1a-new-docking/inputs/ligands/5j1a_ligand.pdb


 25 25  0  0  0  0  0  0  0  0999 V2000
  -48.4773   58.7101   66.4880 C   0  0  0  0  0  0  0  0  0  0  0  0
  -49.5301   59.7550   66.0893 C   0  0  0  0  0  0  0  0  0  0  0  0
  -50.5525   59.1433   65.1414 C   0  0  0  0  0  0  0  0  0  0  0  0
  -51.1448   60.2408   64.2567 C   0  0  0  0  0  0  0  0  0  0  0  0
  -51.0519   59.8385   62.7849 C   0  0  0  0  0  0  0  0  0  0  0  0
  -49.4716   58.0971   61.5413 C   0  0  0  0  0  0  0  0  0  0  0  0
  -50.3995   58.4565   62.7183 C   0  0  0  0  0  0  0  0  0  0  0  0
  -49.2646   59.0413   60.3470 C   0  0  0  0  0  0  0  0  0  0  0  0
  -49.5419   58.2295   59.0734 C   0  0  0  0  0  0  0  0  0  0  0  0
  -48.5644   58.2288   57.8737 C   0  0  0  0  0  0  0  0  0  0  0  0
  -47.2394   59.0154   57.9048 C   0  0  0  0  0  0  0  0  0  0  0  0
  -45.8375   57.7938   59.6283 C   0  0  0  0  0  0  0  0  0  0  0  0
  -46.1092   58.0031   58.1366 C   0  0  0  0  0  0  0  0  0  0  0  0
  -47.2134   58.7386   65.5899 C   0  0  0  0  0  0  0  0  0  0  0  0
  -46.5776   60.1447   65.4786 C   0  0  0  0  0  0  0  0  0  0  0  0
  -46.7657   61.0406   61.8846 C   0  0  0  0  0  0  0  0  0  0  0  0
  -45.4149   61.0533   61.5126 C   0  0  0  0  0  0  0  0  0  0  0  0
  -47.1343   60.7346   63.2001 C   0  0  0  0  0  0  0  0  0  0  0  0
  -44.4507   60.7597   62.4768 C   0  0  0  0  0  0  0  0  0  0  0  0
  -44.8243   60.4637   63.7866 C   0  0  0  0  0  0  0  0  0  0  0  0
  -46.1689   60.4728   64.1788 C   0  0  0  0  0  0  0  0  0  0  0  0
  -43.1244   60.7483   62.1971 O   0  0  0  0  0  0  0  0  0  0  0  0
  -43.8461   60.1904   64.6978 O   0  0  0  0  0  0  0  0  0  0  0  0
  -42.8267   60.9413   61.3299 H   0  0  0  0  0  0  0  0  0  0  0  0
  -42.9473   60.1849   64.4328 H   0  0  0  0  0  0  0  0  0  0  0  0
 12 13  1  0  0  0
  9 10  2  0  0  0
  9  8  1  0  0  0
  6  7  2  0  0  0
  6  8  1  0  0  0
 10 11  1  0  0  0
  7  5  1  0  0  0
 16 17  2  0  0  0
 16 18  1  0  0  0
 17 19  1  0  0  0
 18 21  2  0  0  0
 13 11  1  0  0  0
  5  4  1  0  0  0
  4  3  1  0  0  0
  3  2  1  0  0  0
  2  1  1  0  0  0
  1 14  1  0  0  0
 14 15  1  0  0  0
 15 21  1  0  0  0
 19 20  2  0  0  0
 19 22  1  0  0  0
 20 21  1  0  0  0
 20 23  1  0  0  0
 22 24  1  0  0  0
 23 25  1  0  0  0
M  END
> <minimizedAffinity>
-7.61832

> <CNNscore>
0.3741890192

> <CNNaffinity>
6.2819871902

> <CNN_VS>
2.3506505489

> <CNNaffinity_variance>
0.1896329075

$$$$
/media/chris/experiments/cd1a-new-docking/inputs/ligands/5j1a_ligand.pdb


 25 25  0  0  0  0  0  0  0  0999 V2000
  -50.0530   58.8356   64.6735 C   0  0  0  0  0  0  0  0  0  0  0  0
  -50.8876   59.8683   63.9017 C   0  0  0  0  0  0  0  0  0  0  0  0
  -50.5895   59.7845   62.4110 C   0  0  0  0  0  0  0  0  0  0  0  0
  -50.6112   58.3204   61.9705 C   0  0  0  0  0  0  0  0  0  0  0  0
  -50.1222   58.1971   60.5276 C   0  0  0  0  0  0  0  0  0  0  0  0
  -48.9967   55.8898   59.8306 C   0  0  0  0  0  0  0  0  0  0  0  0
  -50.2570   56.7312   60.1118 C   0  0  0  0  0  0  0  0  0  0  0  0
  -47.5881   56.5033   59.8327 C   0  0  0  0  0  0  0  0  0  0  0  0
  -46.9317   56.1369   58.4937 C   0  0  0  0  0  0  0  0  0  0  0  0
  -47.0857   57.0252   57.2359 C   0  0  0  0  0  0  0  0  0  0  0  0
  -47.8778   58.3470   57.2668 C   0  0  0  0  0  0  0  0  0  0  0  0
  -47.3803   60.1309   58.9983 C   0  0  0  0  0  0  0  0  0  0  0  0
  -46.9098   59.4527   57.7094 C   0  0  0  0  0  0  0  0  0  0  0  0
  -49.7461   59.2612   66.1328 C   0  0  0  0  0  0  0  0  0  0  0  0
  -48.7175   60.4130   66.2271 C   0  0  0  0  0  0  0  0  0  0  0  0
  -45.4653   58.7316   66.8193 C   0  0  0  0  0  0  0  0  0  0  0  0
  -44.6941   59.1937   65.7446 C   0  0  0  0  0  0  0  0  0  0  0  0
  -46.7940   59.1471   66.9669 C   0  0  0  0  0  0  0  0  0  0  0  0
  -45.2769   60.0689   64.8282 C   0  0  0  0  0  0  0  0  0  0  0  0
  -46.6028   60.4723   64.9767 C   0  0  0  0  0  0  0  0  0  0  0  0
  -47.3932   59.9981   66.0314 C   0  0  0  0  0  0  0  0  0  0  0  0
  -44.5983   60.5630   63.7638 O   0  0  0  0  0  0  0  0  0  0  0  0
  -47.1330   61.3234   64.0513 O   0  0  0  0  0  0  0  0  0  0  0  0
  -43.7045   60.3194   63.6238 H   0  0  0  0  0  0  0  0  0  0  0  0
  -46.6021   61.6392   63.3468 H   0  0  0  0  0  0  0  0  0  0  0  0
 12 13  1  0  0  0
  9 10  2  0  0  0
  9  8  1  0  0  0
  6  7  2  0  0  0
  6  8  1  0  0  0
 10 11  1  0  0  0
  7  5  1  0  0  0
 16 17  2  0  0  0
 16 18  1  0  0  0
 17 19  1  0  0  0
 18 21  2  0  0  0
 13 11  1  0  0  0
  5  4  1  0  0  0
  4  3  1  0  0  0
  3  2  1  0  0  0
  2  1  1  0  0  0
  1 14  1  0  0  0
 14 15  1  0  0  0
 15 21  1  0  0  0
 19 20  2  0  0  0
 19 22  1  0  0  0
 20 21  1  0  0  0
 20 23  1  0  0  0
 22 24  1  0  0  0
 23 25  1  0  0  0
M  END
> <minimizedAffinity>
-7.73903

> <CNNscore>
0.3657032251

> <CNNaffinity>
6.2464132309

> <CNN_VS>
2.2843334675

> <CNNaffinity_variance>
0.0621577874

$$$$
