/media/chris/experiments/cd1a-new-docking/inputs/ligands/5j1a_ligand.pdb


 25 25  0  0  0  0  0  0  0  0999 V2000
  -47.1407   55.7714   58.6337 C   0  0  0  0  0  0  0  0  0  0  0  0
  -48.5421   56.0602   59.1922 C   0  0  0  0  0  0  0  0  0  0  0  0
  -49.2474   57.1070   58.3408 C   0  0  0  0  0  0  0  0  0  0  0  0
  -50.0628   58.0316   59.2453 C   0  0  0  0  0  0  0  0  0  0  0  0
  -49.8665   57.6426   60.7104 C   0  0  0  0  0  0  0  0  0  0  0  0
  -50.3432   58.8243   63.0455 C   0  0  0  0  0  0  0  0  0  0  0  0
  -50.7026   58.5978   61.5639 C   0  0  0  0  0  0  0  0  0  0  0  0
  -49.2343   58.0258   63.7480 C   0  0  0  0  0  0  0  0  0  0  0  0
  -49.3942   58.2589   65.2574 C   0  0  0  0  0  0  0  0  0  0  0  0
  -48.4413   57.6125   66.2913 C   0  0  0  0  0  0  0  0  0  0  0  0
  -47.2558   56.7265   65.8609 C   0  0  0  0  0  0  0  0  0  0  0  0
  -46.3991   58.1372   67.7855 C   0  0  0  0  0  0  0  0  0  0  0  0
  -46.1381   56.9203   66.8946 C   0  0  0  0  0  0  0  0  0  0  0  0
  -46.3441   57.0544   58.2812 C   0  0  0  0  0  0  0  0  0  0  0  0
  -45.6991   57.7285   59.5152 C   0  0  0  0  0  0  0  0  0  0  0  0
  -47.5753   60.9251   59.3857 C   0  0  0  0  0  0  0  0  0  0  0  0
  -47.6841   61.2586   60.7422 C   0  0  0  0  0  0  0  0  0  0  0  0
  -46.9125   59.7553   58.9958 C   0  0  0  0  0  0  0  0  0  0  0  0
  -47.1241   60.4028   61.6903 C   0  0  0  0  0  0  0  0  0  0  0  0
  -46.4723   59.2355   61.2956 C   0  0  0  0  0  0  0  0  0  0  0  0
  -46.3787   58.8765   59.9450 C   0  0  0  0  0  0  0  0  0  0  0  0
  -47.1838   60.6547   63.0210 O   0  0  0  0  0  0  0  0  0  0  0  0
  -45.9466   58.4245   62.2588 O   0  0  0  0  0  0  0  0  0  0  0  0
  -47.6122   61.4276   63.3327 H   0  0  0  0  0  0  0  0  0  0  0  0
  -46.0105   58.6670   63.1616 H   0  0  0  0  0  0  0  0  0  0  0  0
 12 13  1  0  0  0
  9 10  2  0  0  0
  9  8  1  0  0  0
  6  7  2  0  0  0
  6  8  1  0  0  0
 10 11  1  0  0  0
  7  5  1  0  0  0
 16 17  2  0  0  0
 16 18  1  0  0  0
 17 19  1  0  0  0
 18 21  2  0  0  0
 13 11  1  0  0  0
  5  4  1  0  0  0
  4  3  1  0  0  0
  3  2  1  0  0  0
  2  1  1  0  0  0
  1 14  1  0  0  0
 14 15  1  0  0  0
 15 21  1  0  0  0
 19 20  2  0  0  0
 19 22  1  0  0  0
 20 21  1  0  0  0
 20 23  1  0  0  0
 22 24  1  0  0  0
 23 25  1  0  0  0
M  END
> <minimizedAffinity>
-7.84379

> <CNNscore>
0.7308080196

> <CNNaffinity>
6.8456411362

> <CNN_VS>
5.0028495789

> <CNNaffinity_variance>
0.1985170543

$$$$
/media/chris/experiments/cd1a-new-docking/inputs/ligands/5j1a_ligand.pdb


 25 25  0  0  0  0  0  0  0  0999 V2000
  -50.7370   58.2176   61.6633 C   0  0  0  0  0  0  0  0  0  0  0  0
  -50.8504   59.6034   62.3160 C   0  0  0  0  0  0  0  0  0  0  0  0
  -50.5428   59.5156   63.8046 C   0  0  0  0  0  0  0  0  0  0  0  0
  -49.6806   58.2817   64.0729 C   0  0  0  0  0  0  0  0  0  0  0  0
  -49.4728   58.1012   65.5765 C   0  0  0  0  0  0  0  0  0  0  0  0
  -48.1906   60.2705   66.4286 C   0  0  0  0  0  0  0  0  0  0  0  0
  -49.5020   59.4875   66.2224 C   0  0  0  0  0  0  0  0  0  0  0  0
  -46.8162   59.6577   66.1182 C   0  0  0  0  0  0  0  0  0  0  0  0
  -46.3856   58.8586   67.3568 C   0  0  0  0  0  0  0  0  0  0  0  0
  -46.0361   57.3530   67.2792 C   0  0  0  0  0  0  0  0  0  0  0  0
  -46.0661   56.5796   65.9463 C   0  0  0  0  0  0  0  0  0  0  0  0
  -43.6115   56.8926   66.4989 C   0  0  0  0  0  0  0  0  0  0  0  0
  -44.6273   56.5231   65.4152 C   0  0  0  0  0  0  0  0  0  0  0  0
  -49.8899   58.2185   60.3644 C   0  0  0  0  0  0  0  0  0  0  0  0
  -48.5371   57.4841   60.5197 C   0  0  0  0  0  0  0  0  0  0  0  0
  -46.4149   58.5696   57.6783 C   0  0  0  0  0  0  0  0  0  0  0  0
  -46.3448   57.4061   56.9009 C   0  0  0  0  0  0  0  0  0  0  0  0
  -47.1471   58.5803   58.8714 C   0  0  0  0  0  0  0  0  0  0  0  0
  -47.0137   56.2641   57.3409 C   0  0  0  0  0  0  0  0  0  0  0  0
  -47.7345   56.2793   58.5339 C   0  0  0  0  0  0  0  0  0  0  0  0
  -47.7917   57.4275   59.3341 C   0  0  0  0  0  0  0  0  0  0  0  0
  -46.9976   55.1003   56.6461 O   0  0  0  0  0  0  0  0  0  0  0  0
  -48.3664   55.1362   58.9287 O   0  0  0  0  0  0  0  0  0  0  0  0
  -46.5258   55.0432   55.8385 H   0  0  0  0  0  0  0  0  0  0  0  0
  -48.3266   54.3694   58.3916 H   0  0  0  0  0  0  0  0  0  0  0  0
 12 13  1  0  0  0
  9 10  2  0  0  0
  9  8  1  0  0  0
  6  7  2  0  0  0
  6  8  1  0  0  0
 10 11  1  0  0  0
  7  5  1  0  0  0
 16 17  2  0  0  0
 16 18  1  0  0  0
 17 19  1  0  0  0
 18 21  2  0  0  0
 13 11  1  0  0  0
  5  4  1  0  0  0
  4  3  1  0  0  0
  3  2  1  0  0  0
  2  1  1  0  0  0
  1 14  1  0  0  0
 14 15  1  0  0  0
 15 21  1  0  0  0
 19 20  2  0  0  0
 19 22  1  0  0  0
 20 21  1  0  0  0
 20 23  1  0  0  0
 22 24  1  0  0  0
 23 25  1  0  0  0
M  END
> <minimizedAffinity>
-8.56900

> <CNNscore>
0.7106034756

> <CNNaffinity>
7.0300965309

> <CNN_VS>
4.9956111908

> <CNNaffinity_variance>
0.1906036586

$$$$
/media/chris/experiments/cd1a-new-docking/inputs/ligands/5j1a_ligand.pdb


 25 25  0  0  0  0  0  0  0  0999 V2000
  -46.9976   59.2720   57.4763 C   0  0  0  0  0  0  0  0  0  0  0  0
  -46.2861   57.9165   57.6018 C   0  0  0  0  0  0  0  0  0  0  0  0
  -47.2778   56.7770   57.4120 C   0  0  0  0  0  0  0  0  0  0  0  0
  -47.1424   55.7880   58.5702 C   0  0  0  0  0  0  0  0  0  0  0  0
  -48.3967   55.8242   59.4431 C   0  0  0  0  0  0  0  0  0  0  0  0
  -50.0093   57.9024   59.8387 C   0  0  0  0  0  0  0  0  0  0  0  0
  -49.3242   56.9047   58.8844 C   0  0  0  0  0  0  0  0  0  0  0  0
  -49.8945   57.7818   61.3661 C   0  0  0  0  0  0  0  0  0  0  0  0
  -50.5463   59.0341   61.9703 C   0  0  0  0  0  0  0  0  0  0  0  0
  -49.8923   59.8173   63.1338 C   0  0  0  0  0  0  0  0  0  0  0  0
  -48.5312   59.4041   63.7275 C   0  0  0  0  0  0  0  0  0  0  0  0
  -49.4784   59.7083   66.0596 C   0  0  0  0  0  0  0  0  0  0  0  0
  -48.3811   60.1217   65.0759 C   0  0  0  0  0  0  0  0  0  0  0  0
  -47.1055   60.0355   58.8217 C   0  0  0  0  0  0  0  0  0  0  0  0
  -46.4250   59.2955   59.9976 C   0  0  0  0  0  0  0  0  0  0  0  0
  -46.3209   62.2932   62.1790 C   0  0  0  0  0  0  0  0  0  0  0  0
  -45.3920   61.9142   63.1571 C   0  0  0  0  0  0  0  0  0  0  0  0
  -46.6495   61.4166   61.1381 C   0  0  0  0  0  0  0  0  0  0  0  0
  -44.8080   60.6505   63.0737 C   0  0  0  0  0  0  0  0  0  0  0  0
  -45.1456   59.7796   62.0391 C   0  0  0  0  0  0  0  0  0  0  0  0
  -46.0917   60.1350   61.0693 C   0  0  0  0  0  0  0  0  0  0  0  0
  -43.8994   60.2095   63.9780 O   0  0  0  0  0  0  0  0  0  0  0  0
  -44.5547   58.5503   62.0024 O   0  0  0  0  0  0  0  0  0  0  0  0
  -43.6421   60.7607   64.6907 H   0  0  0  0  0  0  0  0  0  0  0  0
  -43.9220   58.3149   62.6524 H   0  0  0  0  0  0  0  0  0  0  0  0
 12 13  1  0  0  0
  9 10  2  0  0  0
  9  8  1  0  0  0
  6  7  2  0  0  0
  6  8  1  0  0  0
 10 11  1  0  0  0
  7  5  1  0  0  0
 16 17  2  0  0  0
 16 18  1  0  0  0
 17 19  1  0  0  0
 18 21  2  0  0  0
 13 11  1  0  0  0
  5  4  1  0  0  0
  4  3  1  0  0  0
  3  2  1  0  0  0
  2  1  1  0  0  0
  1 14  1  0  0  0
 14 15  1  0  0  0
 15 21  1  0  0  0
 19 20  2  0  0  0
 19 22  1  0  0  0
 20 21  1  0  0  0
 20 23  1  0  0  0
 22 24  1  0  0  0
 23 25  1  0  0  0
M  END
> <minimizedAffinity>
-7.44941

> <CNNscore>
0.5679225922

> <CNNaffinity>
6.6015038490

> <CNN_VS>
3.7491431236

> <CNNaffinity_variance>
0.0270005912

$$$$
/media/chris/experiments/cd1a-new-docking/inputs/ligands/5j1a_ligand.pdb


 25 25  0  0  0  0  0  0  0  0999 V2000
  -48.8192   59.2188   63.6368 C   0  0  0  0  0  0  0  0  0  0  0  0
  -49.0933   58.1958   62.5244 C   0  0  0  0  0  0  0  0  0  0  0  0
  -50.2526   58.6578   61.6523 C   0  0  0  0  0  0  0  0  0  0  0  0
  -50.7931   57.4701   60.8553 C   0  0  0  0  0  0  0  0  0  0  0  0
  -50.0145   57.3141   59.5492 C   0  0  0  0  0  0  0  0  0  0  0  0
  -48.1525   55.7018   58.5444 C   0  0  0  0  0  0  0  0  0  0  0  0
  -49.1224   56.0785   59.6814 C   0  0  0  0  0  0  0  0  0  0  0  0
  -48.1283   56.4585   57.2074 C   0  0  0  0  0  0  0  0  0  0  0  0
  -46.7089   57.0163   57.0274 C   0  0  0  0  0  0  0  0  0  0  0  0
  -46.2856   58.3837   57.6154 C   0  0  0  0  0  0  0  0  0  0  0  0
  -47.2560   59.2464   58.4460 C   0  0  0  0  0  0  0  0  0  0  0  0
  -45.9990   58.3101   60.4388 C   0  0  0  0  0  0  0  0  0  0  0  0
  -46.5606   59.5698   59.7753 C   0  0  0  0  0  0  0  0  0  0  0  0
  -47.3232   59.3054   64.0360 C   0  0  0  0  0  0  0  0  0  0  0  0
  -46.8868   60.7292   64.4555 C   0  0  0  0  0  0  0  0  0  0  0  0
  -45.2355   62.5580   61.6834 C   0  0  0  0  0  0  0  0  0  0  0  0
  -43.8799   62.2994   61.9256 C   0  0  0  0  0  0  0  0  0  0  0  0
  -46.2185   62.0283   62.5278 C   0  0  0  0  0  0  0  0  0  0  0  0
  -43.5330   61.5104   63.0220 C   0  0  0  0  0  0  0  0  0  0  0  0
  -44.5164   60.9927   63.8634 C   0  0  0  0  0  0  0  0  0  0  0  0
  -45.8736   61.2644   63.6485 C   0  0  0  0  0  0  0  0  0  0  0  0
  -42.2454   61.2118   63.3233 O   0  0  0  0  0  0  0  0  0  0  0  0
  -44.1296   60.2326   64.9284 O   0  0  0  0  0  0  0  0  0  0  0  0
  -41.5507   61.5381   62.7857 H   0  0  0  0  0  0  0  0  0  0  0  0
  -43.2210   60.0522   65.0699 H   0  0  0  0  0  0  0  0  0  0  0  0
 12 13  1  0  0  0
  9 10  2  0  0  0
  9  8  1  0  0  0
  6  7  2  0  0  0
  6  8  1  0  0  0
 10 11  1  0  0  0
  7  5  1  0  0  0
 16 17  2  0  0  0
 16 18  1  0  0  0
 17 19  1  0  0  0
 18 21  2  0  0  0
 13 11  1  0  0  0
  5  4  1  0  0  0
  4  3  1  0  0  0
  3  2  1  0  0  0
  2  1  1  0  0  0
  1 14  1  0  0  0
 14 15  1  0  0  0
 15 21  1  0  0  0
 19 20  2  0  0  0
 19 22  1  0  0  0
 20 21  1  0  0  0
 20 23  1  0  0  0
 22 24  1  0  0  0
 23 25  1  0  0  0
M  END
> <minimizedAffinity>
-7.75180

> <CNNscore>
0.5122610927

> <CNNaffinity>
6.2885961533

> <CNN_VS>
3.2214031219

> <CNNaffinity_variance>
0.1592318863

$$$$
/media/chris/experiments/cd1a-new-docking/inputs/ligands/5j1a_ligand.pdb


 25 25  0  0  0  0  0  0  0  0999 V2000
  -50.0334   58.5889   62.2763 C   0  0  0  0  0  0  0  0  0  0  0  0
  -51.1083   59.5779   62.7514 C   0  0  0  0  0  0  0  0  0  0  0  0
  -50.8582   59.9787   64.1988 C   0  0  0  0  0  0  0  0  0  0  0  0
  -50.1165   58.8508   64.9170 C   0  0  0  0  0  0  0  0  0  0  0  0
  -49.0646   59.4305   65.8624 C   0  0  0  0  0  0  0  0  0  0  0  0
  -47.2756   60.6155   64.2904 C   0  0  0  0  0  0  0  0  0  0  0  0
  -48.5042   60.6992   65.2171 C   0  0  0  0  0  0  0  0  0  0  0  0
  -46.5007   59.3058   64.0779 C   0  0  0  0  0  0  0  0  0  0  0  0
  -46.5565   58.9840   62.5774 C   0  0  0  0  0  0  0  0  0  0  0  0
  -45.3820   58.2933   61.8438 C   0  0  0  0  0  0  0  0  0  0  0  0
  -44.1039   57.8572   62.5868 C   0  0  0  0  0  0  0  0  0  0  0  0
  -41.6455   58.3370   62.1936 C   0  0  0  0  0  0  0  0  0  0  0  0
  -43.0430   58.9410   62.3513 C   0  0  0  0  0  0  0  0  0  0  0  0
  -50.2040   58.1615   60.7954 C   0  0  0  0  0  0  0  0  0  0  0  0
  -49.2419   57.0251   60.3754 C   0  0  0  0  0  0  0  0  0  0  0  0
  -47.1278   59.1135   58.1562 C   0  0  0  0  0  0  0  0  0  0  0  0
  -46.7026   58.1864   57.1956 C   0  0  0  0  0  0  0  0  0  0  0  0
  -47.9706   58.7143   59.2003 C   0  0  0  0  0  0  0  0  0  0  0  0
  -47.1320   56.8639   57.3036 C   0  0  0  0  0  0  0  0  0  0  0  0
  -47.9648   56.4714   58.3502 C   0  0  0  0  0  0  0  0  0  0  0  0
  -48.3765   57.3815   59.3321 C   0  0  0  0  0  0  0  0  0  0  0  0
  -46.7680   55.9075   56.4145 O   0  0  0  0  0  0  0  0  0  0  0  0
  -48.3531   55.1652   58.4200 O   0  0  0  0  0  0  0  0  0  0  0  0
  -46.2090   56.1253   55.6947 H   0  0  0  0  0  0  0  0  0  0  0  0
  -48.0763   54.5583   57.7618 H   0  0  0  0  0  0  0  0  0  0  0  0
 12 13  1  0  0  0
  9 10  2  0  0  0
  9  8  1  0  0  0
  6  7  2  0  0  0
  6  8  1  0  0  0
 10 11  1  0  0  0
  7  5  1  0  0  0
 16 17  2  0  0  0
 16 18  1  0  0  0
 17 19  1  0  0  0
 18 21  2  0  0  0
 13 11  1  0  0  0
  5  4  1  0  0  0
  4  3  1  0  0  0
  3  2  1  0  0  0
  2  1  1  0  0  0
  1 14  1  0  0  0
 14 15  1  0  0  0
 15 21  1  0  0  0
 19 20  2  0  0  0
 19 22  1  0  0  0
 20 21  1  0  0  0
 20 23  1  0  0  0
 22 24  1  0  0  0
 23 25  1  0  0  0
M  END
> <minimizedAffinity>
-7.61959

> <CNNscore>
0.4402695596

> <CNNaffinity>
6.8488936424

> <CNN_VS>
3.0153594017

> <CNNaffinity_variance>
0.1883419752

$$$$
/media/chris/experiments/cd1a-new-docking/inputs/ligands/5j1a_ligand.pdb


 25 25  0  0  0  0  0  0  0  0999 V2000
  -50.4505   58.3979   62.2718 C   0  0  0  0  0  0  0  0  0  0  0  0
  -50.8889   59.7730   62.7972 C   0  0  0  0  0  0  0  0  0  0  0  0
  -50.7863   59.8183   64.3156 C   0  0  0  0  0  0  0  0  0  0  0  0
  -50.2132   58.4956   64.8254 C   0  0  0  0  0  0  0  0  0  0  0  0
  -49.3153   58.7429   66.0375 C   0  0  0  0  0  0  0  0  0  0  0  0
  -46.8640   57.8799   66.6056 C   0  0  0  0  0  0  0  0  0  0  0  0
  -48.2951   57.6050   66.1037 C   0  0  0  0  0  0  0  0  0  0  0  0
  -46.3724   59.2980   66.9347 C   0  0  0  0  0  0  0  0  0  0  0  0
  -45.2393   59.6249   65.9513 C   0  0  0  0  0  0  0  0  0  0  0  0
  -45.5024   60.3539   64.6118 C   0  0  0  0  0  0  0  0  0  0  0  0
  -46.9129   60.8246   64.2063 C   0  0  0  0  0  0  0  0  0  0  0  0
  -46.8248   58.7469   62.7558 C   0  0  0  0  0  0  0  0  0  0  0  0
  -47.2191   60.2241   62.8275 C   0  0  0  0  0  0  0  0  0  0  0  0
  -50.1466   58.3902   60.7511 C   0  0  0  0  0  0  0  0  0  0  0  0
  -49.3290   57.1566   60.3002 C   0  0  0  0  0  0  0  0  0  0  0  0
  -47.0030   59.0726   58.1381 C   0  0  0  0  0  0  0  0  0  0  0  0
  -46.5884   58.1013   57.2173 C   0  0  0  0  0  0  0  0  0  0  0  0
  -47.9129   58.7450   59.1503 C   0  0  0  0  0  0  0  0  0  0  0  0
  -47.0962   56.8075   57.3327 C   0  0  0  0  0  0  0  0  0  0  0  0
  -47.9959   56.4862   58.3477 C   0  0  0  0  0  0  0  0  0  0  0  0
  -48.3990   57.4402   59.2907 C   0  0  0  0  0  0  0  0  0  0  0  0
  -46.7475   55.8121   56.4811 O   0  0  0  0  0  0  0  0  0  0  0  0
  -48.4601   55.2056   58.4264 O   0  0  0  0  0  0  0  0  0  0  0  0
  -46.1454   55.9818   55.7834 H   0  0  0  0  0  0  0  0  0  0  0  0
  -48.1889   54.5692   57.7943 H   0  0  0  0  0  0  0  0  0  0  0  0
 12 13  1  0  0  0
  9 10  2  0  0  0
  9  8  1  0  0  0
  6  7  2  0  0  0
  6  8  1  0  0  0
 10 11  1  0  0  0
  7  5  1  0  0  0
 16 17  2  0  0  0
 16 18  1  0  0  0
 17 19  1  0  0  0
 18 21  2  0  0  0
 13 11  1  0  0  0
  5  4  1  0  0  0
  4  3  1  0  0  0
  3  2  1  0  0  0
  2  1  1  0  0  0
  1 14  1  0  0  0
 14 15  1  0  0  0
 15 21  1  0  0  0
 19 20  2  0  0  0
 19 22  1  0  0  0
 20 21  1  0  0  0
 20 23  1  0  0  0
 22 24  1  0  0  0
 23 25  1  0  0  0
M  END
> <minimizedAffinity>
-7.84260

> <CNNscore>
0.4363246560

> <CNNaffinity>
6.7790160179

> <CNN_VS>
2.9578518867

> <CNNaffinity_variance>
0.1381450146

$$$$
/media/chris/experiments/cd1a-new-docking/inputs/ligands/5j1a_ligand.pdb


 25 25  0  0  0  0  0  0  0  0999 V2000
  -50.9846   59.6369   62.4712 C   0  0  0  0  0  0  0  0  0  0  0  0
  -51.0591   59.7768   63.9990 C   0  0  0  0  0  0  0  0  0  0  0  0
  -49.8930   59.0510   64.6559 C   0  0  0  0  0  0  0  0  0  0  0  0
  -49.7469   59.5288   66.1010 C   0  0  0  0  0  0  0  0  0  0  0  0
  -48.3479   60.1016   66.3275 C   0  0  0  0  0  0  0  0  0  0  0  0
  -46.5497   60.7370   64.4731 C   0  0  0  0  0  0  0  0  0  0  0  0
  -47.9587   60.8932   65.0778 C   0  0  0  0  0  0  0  0  0  0  0  0
  -45.4580   59.8964   65.1529 C   0  0  0  0  0  0  0  0  0  0  0  0
  -45.4002   58.5487   64.4191 C   0  0  0  0  0  0  0  0  0  0  0  0
  -45.3140   57.2044   65.1809 C   0  0  0  0  0  0  0  0  0  0  0  0
  -45.3175   57.1417   66.7209 C   0  0  0  0  0  0  0  0  0  0  0  0
  -47.5840   56.2256   66.0487 C   0  0  0  0  0  0  0  0  0  0  0  0
  -46.7609   56.8702   67.1665 C   0  0  0  0  0  0  0  0  0  0  0  0
  -49.5328   59.6200   61.9265 C   0  0  0  0  0  0  0  0  0  0  0  0
  -49.4628   59.6101   60.3810 C   0  0  0  0  0  0  0  0  0  0  0  0
  -46.2325   58.4824   58.9496 C   0  0  0  0  0  0  0  0  0  0  0  0
  -46.4598   57.1143   58.7500 C   0  0  0  0  0  0  0  0  0  0  0  0
  -47.2374   59.2954   59.4871 C   0  0  0  0  0  0  0  0  0  0  0  0
  -47.7007   56.5824   59.0998 C   0  0  0  0  0  0  0  0  0  0  0  0
  -48.6942   57.3961   59.6419 C   0  0  0  0  0  0  0  0  0  0  0  0
  -48.4721   58.7599   59.8711 C   0  0  0  0  0  0  0  0  0  0  0  0
  -48.0006   55.2706   58.9359 O   0  0  0  0  0  0  0  0  0  0  0  0
  -49.8899   56.8304   59.9765 O   0  0  0  0  0  0  0  0  0  0  0  0
  -47.3634   54.6859   58.5751 H   0  0  0  0  0  0  0  0  0  0  0  0
  -50.0361   55.9178   59.8221 H   0  0  0  0  0  0  0  0  0  0  0  0
 12 13  1  0  0  0
  9 10  2  0  0  0
  9  8  1  0  0  0
  6  7  2  0  0  0
  6  8  1  0  0  0
 10 11  1  0  0  0
  7  5  1  0  0  0
 16 17  2  0  0  0
 16 18  1  0  0  0
 17 19  1  0  0  0
 18 21  2  0  0  0
 13 11  1  0  0  0
  5  4  1  0  0  0
  4  3  1  0  0  0
  3  2  1  0  0  0
  2  1  1  0  0  0
  1 14  1  0  0  0
 14 15  1  0  0  0
 15 21  1  0  0  0
 19 20  2  0  0  0
 19 22  1  0  0  0
 20 21  1  0  0  0
 20 23  1  0  0  0
 22 24  1  0  0  0
 23 25  1  0  0  0
M  END
> <minimizedAffinity>
-7.56985

> <CNNscore>
0.4356963038

> <CNNaffinity>
6.5262060165

> <CNN_VS>
2.8434438705

> <CNNaffinity_variance>
0.2619590461

$$$$
/media/chris/experiments/cd1a-new-docking/inputs/ligands/5j1a_ligand.pdb


 25 25  0  0  0  0  0  0  0  0999 V2000
  -50.7487   57.3742   60.7032 C   0  0  0  0  0  0  0  0  0  0  0  0
  -50.3544   57.9684   59.3428 C   0  0  0  0  0  0  0  0  0  0  0  0
  -49.4477   57.0071   58.5865 C   0  0  0  0  0  0  0  0  0  0  0  0
  -48.8196   56.0206   59.5715 C   0  0  0  0  0  0  0  0  0  0  0  0
  -47.4920   55.4999   59.0211 C   0  0  0  0  0  0  0  0  0  0  0  0
  -46.7843   56.6657   56.7372 C   0  0  0  0  0  0  0  0  0  0  0  0
  -47.5592   55.5696   57.4945 C   0  0  0  0  0  0  0  0  0  0  0  0
  -46.0298   57.7862   57.4692 C   0  0  0  0  0  0  0  0  0  0  0  0
  -46.8863   59.0562   57.3602 C   0  0  0  0  0  0  0  0  0  0  0  0
  -47.2370   59.9161   58.5981 C   0  0  0  0  0  0  0  0  0  0  0  0
  -46.7156   59.5650   60.0054 C   0  0  0  0  0  0  0  0  0  0  0  0
  -46.2985   61.7015   61.3054 C   0  0  0  0  0  0  0  0  0  0  0  0
  -47.3029   60.5925   60.9826 C   0  0  0  0  0  0  0  0  0  0  0  0
  -50.4932   58.3378   61.8911 C   0  0  0  0  0  0  0  0  0  0  0  0
  -49.1689   58.0473   62.6363 C   0  0  0  0  0  0  0  0  0  0  0  0
  -50.3318   59.5390   65.8266 C   0  0  0  0  0  0  0  0  0  0  0  0
  -49.1352   59.6727   66.5433 C   0  0  0  0  0  0  0  0  0  0  0  0
  -50.3257   59.0024   64.5336 C   0  0  0  0  0  0  0  0  0  0  0  0
  -47.9453   59.2585   65.9453 C   0  0  0  0  0  0  0  0  0  0  0  0
  -47.9474   58.7178   64.6605 C   0  0  0  0  0  0  0  0  0  0  0  0
  -49.1390   58.5542   63.9426 C   0  0  0  0  0  0  0  0  0  0  0  0
  -46.7463   59.3564   66.5701 O   0  0  0  0  0  0  0  0  0  0  0  0
  -46.7603   58.3190   64.1188 O   0  0  0  0  0  0  0  0  0  0  0  0
  -46.6964   59.7136   67.4350 H   0  0  0  0  0  0  0  0  0  0  0  0
  -45.9646   58.4295   64.6011 H   0  0  0  0  0  0  0  0  0  0  0  0
 12 13  1  0  0  0
  9 10  2  0  0  0
  9  8  1  0  0  0
  6  7  2  0  0  0
  6  8  1  0  0  0
 10 11  1  0  0  0
  7  5  1  0  0  0
 16 17  2  0  0  0
 16 18  1  0  0  0
 17 19  1  0  0  0
 18 21  2  0  0  0
 13 11  1  0  0  0
  5  4  1  0  0  0
  4  3  1  0  0  0
  3  2  1  0  0  0
  2  1  1  0  0  0
  1 14  1  0  0  0
 14 15  1  0  0  0
 15 21  1  0  0  0
 19 20  2  0  0  0
 19 22  1  0  0  0
 20 21  1  0  0  0
 20 23  1  0  0  0
 22 24  1  0  0  0
 23 25  1  0  0  0
M  END
> <minimizedAffinity>
-8.47399

> <CNNscore>
0.3766896129

> <CNNaffinity>
6.3597064018

> <CNN_VS>
2.3956353664

> <CNNaffinity_variance>
0.1230227500

$$$$
/media/chris/experiments/cd1a-new-docking/inputs/ligands/5j1a_ligand.pdb


 25 25  0  0  0  0  0  0  0  0999 V2000
  -45.8227   60.0594   61.8713 C   0  0  0  0  0  0  0  0  0  0  0  0
  -46.1378   58.6160   61.4512 C   0  0  0  0  0  0  0  0  0  0  0  0
  -46.0531   58.4733   59.9377 C   0  0  0  0  0  0  0  0  0  0  0  0
  -46.9267   59.5405   59.2775 C   0  0  0  0  0  0  0  0  0  0  0  0
  -47.2403   59.1458   57.8345 C   0  0  0  0  0  0  0  0  0  0  0  0
  -46.6446   56.6646   57.0828 C   0  0  0  0  0  0  0  0  0  0  0  0
  -46.2049   58.1078   57.3980 C   0  0  0  0  0  0  0  0  0  0  0  0
  -48.0860   56.1825   57.3082 C   0  0  0  0  0  0  0  0  0  0  0  0
  -48.1501   55.5899   58.7234 C   0  0  0  0  0  0  0  0  0  0  0  0
  -49.0763   56.1765   59.8156 C   0  0  0  0  0  0  0  0  0  0  0  0
  -50.0133   57.3671   59.5327 C   0  0  0  0  0  0  0  0  0  0  0  0
  -49.6140   57.7659   62.0045 C   0  0  0  0  0  0  0  0  0  0  0  0
  -50.6405   57.7860   60.8694 C   0  0  0  0  0  0  0  0  0  0  0  0
  -46.9811   60.7401   62.6456 C   0  0  0  0  0  0  0  0  0  0  0  0
  -46.8706   60.5699   64.1793 C   0  0  0  0  0  0  0  0  0  0  0  0
  -50.1048   59.2687   65.4451 C   0  0  0  0  0  0  0  0  0  0  0  0
  -49.7579   57.9798   65.8711 C   0  0  0  0  0  0  0  0  0  0  0  0
  -49.1372   60.1148   64.8905 C   0  0  0  0  0  0  0  0  0  0  0  0
  -48.4359   57.5591   65.7281 C   0  0  0  0  0  0  0  0  0  0  0  0
  -47.4791   58.4039   65.1677 C   0  0  0  0  0  0  0  0  0  0  0  0
  -47.8171   59.6851   64.7138 C   0  0  0  0  0  0  0  0  0  0  0  0
  -48.0191   56.3293   66.1174 O   0  0  0  0  0  0  0  0  0  0  0  0
  -46.1998   57.9467   65.0404 O   0  0  0  0  0  0  0  0  0  0  0  0
  -48.6275   55.7276   66.4992 H   0  0  0  0  0  0  0  0  0  0  0  0
  -45.9763   57.0891   65.3449 H   0  0  0  0  0  0  0  0  0  0  0  0
 12 13  1  0  0  0
  9 10  2  0  0  0
  9  8  1  0  0  0
  6  7  2  0  0  0
  6  8  1  0  0  0
 10 11  1  0  0  0
  7  5  1  0  0  0
 16 17  2  0  0  0
 16 18  1  0  0  0
 17 19  1  0  0  0
 18 21  2  0  0  0
 13 11  1  0  0  0
  5  4  1  0  0  0
  4  3  1  0  0  0
  3  2  1  0  0  0
  2  1  1  0  0  0
  1 14  1  0  0  0
 14 15  1  0  0  0
 15 21  1  0  0  0
 19 20  2  0  0  0
 19 22  1  0  0  0
 20 21  1  0  0  0
 20 23  1  0  0  0
 22 24  1  0  0  0
 23 25  1  0  0  0
M  END
> <minimizedAffinity>
-7.77904

> <CNNscore>
0.3607854247

> <CNNaffinity>
6.2435178757

> <CNN_VS>
2.2525701523

> <CNNaffinity_variance>
0.4409550726

$$$$
