/media/chris/experiments/cd1a-new-docking/inputs/ligands/5j1a_ligand.pdb


 25 25  0  0  0  0  0  0  0  0999 V2000
  -47.5575   61.3805   60.7648 C   0  0  0  0  0  0  0  0  0  0  0  0
  -46.5161   60.7547   61.7045 C   0  0  0  0  0  0  0  0  0  0  0  0
  -45.7187   61.8417   62.4121 C   0  0  0  0  0  0  0  0  0  0  0  0
  -45.1829   61.2973   63.7367 C   0  0  0  0  0  0  0  0  0  0  0  0
  -45.8944   59.9933   64.0967 C   0  0  0  0  0  0  0  0  0  0  0  0
  -46.8434   59.7977   66.5741 C   0  0  0  0  0  0  0  0  0  0  0  0
  -45.6628   59.7299   65.5857 C   0  0  0  0  0  0  0  0  0  0  0  0
  -48.2475   60.2449   66.1393 C   0  0  0  0  0  0  0  0  0  0  0  0
  -49.1768   59.0314   66.2891 C   0  0  0  0  0  0  0  0  0  0  0  0
  -49.6964   58.2418   65.0639 C   0  0  0  0  0  0  0  0  0  0  0  0
  -49.2811   58.6081   63.6256 C   0  0  0  0  0  0  0  0  0  0  0  0
  -51.1778   60.1045   62.8561 C   0  0  0  0  0  0  0  0  0  0  0  0
  -50.5633   58.7044   62.7874 C   0  0  0  0  0  0  0  0  0  0  0  0
  -48.3755   60.3307   59.9688 C   0  0  0  0  0  0  0  0  0  0  0  0
  -47.9706   58.8726   60.2905 C   0  0  0  0  0  0  0  0  0  0  0  0
  -46.2778   58.0627   57.0914 C   0  0  0  0  0  0  0  0  0  0  0  0
  -46.7469   56.7688   56.8286 C   0  0  0  0  0  0  0  0  0  0  0  0
  -46.6949   58.7469   58.2395 C   0  0  0  0  0  0  0  0  0  0  0  0
  -47.6302   56.1792   57.7326 C   0  0  0  0  0  0  0  0  0  0  0  0
  -48.0353   56.8629   58.8778 C   0  0  0  0  0  0  0  0  0  0  0  0
  -47.5543   58.1465   59.1664 C   0  0  0  0  0  0  0  0  0  0  0  0
  -48.1314   54.9329   57.5499 O   0  0  0  0  0  0  0  0  0  0  0  0
  -48.8946   56.2432   59.7376 O   0  0  0  0  0  0  0  0  0  0  0  0
  -47.8870   54.4357   56.7943 H   0  0  0  0  0  0  0  0  0  0  0  0
  -49.2149   55.3846   59.5422 H   0  0  0  0  0  0  0  0  0  0  0  0
 12 13  1  0  0  0
  9 10  2  0  0  0
  9  8  1  0  0  0
  6  7  2  0  0  0
  6  8  1  0  0  0
 10 11  1  0  0  0
  7  5  1  0  0  0
 16 17  2  0  0  0
 16 18  1  0  0  0
 17 19  1  0  0  0
 18 21  2  0  0  0
 13 11  1  0  0  0
  5  4  1  0  0  0
  4  3  1  0  0  0
  3  2  1  0  0  0
  2  1  1  0  0  0
  1 14  1  0  0  0
 14 15  1  0  0  0
 15 21  1  0  0  0
 19 20  2  0  0  0
 19 22  1  0  0  0
 20 21  1  0  0  0
 20 23  1  0  0  0
 22 24  1  0  0  0
 23 25  1  0  0  0
M  END
> <minimizedAffinity>
-7.84366

> <CNNscore>
0.6620301604

> <CNNaffinity>
6.9296212196

> <CNN_VS>
4.5876183510

> <CNNaffinity_variance>
0.1664474010

$$$$
/media/chris/experiments/cd1a-new-docking/inputs/ligands/5j1a_ligand.pdb


 25 25  0  0  0  0  0  0  0  0999 V2000
  -48.2149   59.1072   66.5974 C   0  0  0  0  0  0  0  0  0  0  0  0
  -49.5902   59.0126   65.9202 C   0  0  0  0  0  0  0  0  0  0  0  0
  -49.4737   59.3302   64.4357 C   0  0  0  0  0  0  0  0  0  0  0  0
  -50.7822   59.9509   63.9452 C   0  0  0  0  0  0  0  0  0  0  0  0
  -51.1065   59.4523   62.5371 C   0  0  0  0  0  0  0  0  0  0  0  0
  -49.5148   57.9644   61.0110 C   0  0  0  0  0  0  0  0  0  0  0  0
  -50.3246   58.1576   62.3081 C   0  0  0  0  0  0  0  0  0  0  0  0
  -49.5564   58.9846   59.8629 C   0  0  0  0  0  0  0  0  0  0  0  0
  -49.4473   58.1950   58.5503 C   0  0  0  0  0  0  0  0  0  0  0  0
  -48.1321   58.1359   57.7370 C   0  0  0  0  0  0  0  0  0  0  0  0
  -46.8471   58.8378   58.2183 C   0  0  0  0  0  0  0  0  0  0  0  0
  -45.7833   58.0838   60.3928 C   0  0  0  0  0  0  0  0  0  0  0  0
  -45.9745   57.7784   58.9052 C   0  0  0  0  0  0  0  0  0  0  0  0
  -47.3786   60.3234   66.1215 C   0  0  0  0  0  0  0  0  0  0  0  0
  -45.9720   59.9318   65.6099 C   0  0  0  0  0  0  0  0  0  0  0  0
  -46.1608   62.1358   62.6330 C   0  0  0  0  0  0  0  0  0  0  0  0
  -44.8774   62.0040   62.0864 C   0  0  0  0  0  0  0  0  0  0  0  0
  -46.5086   61.4408   63.7975 C   0  0  0  0  0  0  0  0  0  0  0  0
  -43.9580   61.1730   62.7262 C   0  0  0  0  0  0  0  0  0  0  0  0
  -44.3084   60.4900   63.8897 C   0  0  0  0  0  0  0  0  0  0  0  0
  -45.5791   60.6326   64.4616 C   0  0  0  0  0  0  0  0  0  0  0  0
  -42.6982   60.9899   62.2603 O   0  0  0  0  0  0  0  0  0  0  0  0
  -43.3736   59.6944   64.4854 O   0  0  0  0  0  0  0  0  0  0  0  0
  -42.4183   61.4287   61.4812 H   0  0  0  0  0  0  0  0  0  0  0  0
  -42.5243   59.6007   64.1008 H   0  0  0  0  0  0  0  0  0  0  0  0
 12 13  1  0  0  0
  9 10  2  0  0  0
  9  8  1  0  0  0
  6  7  2  0  0  0
  6  8  1  0  0  0
 10 11  1  0  0  0
  7  5  1  0  0  0
 16 17  2  0  0  0
 16 18  1  0  0  0
 17 19  1  0  0  0
 18 21  2  0  0  0
 13 11  1  0  0  0
  5  4  1  0  0  0
  4  3  1  0  0  0
  3  2  1  0  0  0
  2  1  1  0  0  0
  1 14  1  0  0  0
 14 15  1  0  0  0
 15 21  1  0  0  0
 19 20  2  0  0  0
 19 22  1  0  0  0
 20 21  1  0  0  0
 20 23  1  0  0  0
 22 24  1  0  0  0
 23 25  1  0  0  0
M  END
> <minimizedAffinity>
-7.84105

> <CNNscore>
0.5418789387

> <CNNaffinity>
6.3863530159

> <CNN_VS>
3.4606301785

> <CNNaffinity_variance>
0.2546456456

$$$$
/media/chris/experiments/cd1a-new-docking/inputs/ligands/5j1a_ligand.pdb


 25 25  0  0  0  0  0  0  0  0999 V2000
  -50.1234   58.6215   64.7395 C   0  0  0  0  0  0  0  0  0  0  0  0
  -50.9384   59.8625   64.3463 C   0  0  0  0  0  0  0  0  0  0  0  0
  -51.0175   59.9873   62.8310 C   0  0  0  0  0  0  0  0  0  0  0  0
  -50.3934   58.7491   62.1864 C   0  0  0  0  0  0  0  0  0  0  0  0
  -49.7081   59.1276   60.8735 C   0  0  0  0  0  0  0  0  0  0  0  0
  -47.8751   60.8971   60.1086 C   0  0  0  0  0  0  0  0  0  0  0  0
  -48.9724   60.4504   61.0945 C   0  0  0  0  0  0  0  0  0  0  0  0
  -47.3949   59.9978   58.9592 C   0  0  0  0  0  0  0  0  0  0  0  0
  -46.4663   58.9381   59.5699 C   0  0  0  0  0  0  0  0  0  0  0  0
  -45.8938   57.7700   58.7318 C   0  0  0  0  0  0  0  0  0  0  0  0
  -46.1955   57.6254   57.2273 C   0  0  0  0  0  0  0  0  0  0  0  0
  -47.3287   55.3833   56.8843 C   0  0  0  0  0  0  0  0  0  0  0  0
  -47.5337   56.8852   57.0960 C   0  0  0  0  0  0  0  0  0  0  0  0
  -49.3339   58.7994   66.0624 C   0  0  0  0  0  0  0  0  0  0  0  0
  -48.6960   60.2014   66.2064 C   0  0  0  0  0  0  0  0  0  0  0  0
  -46.0484   60.9703   63.7255 C   0  0  0  0  0  0  0  0  0  0  0  0
  -44.9037   60.4520   64.3454 C   0  0  0  0  0  0  0  0  0  0  0  0
  -47.2965   60.8764   64.3528 C   0  0  0  0  0  0  0  0  0  0  0  0
  -45.0334   59.8475   65.5955 C   0  0  0  0  0  0  0  0  0  0  0  0
  -46.2778   59.7643   66.2180 C   0  0  0  0  0  0  0  0  0  0  0  0
  -47.4261   60.3011   65.6219 C   0  0  0  0  0  0  0  0  0  0  0  0
  -43.9761   59.3197   66.2598 O   0  0  0  0  0  0  0  0  0  0  0  0
  -46.3552   59.1712   67.4443 O   0  0  0  0  0  0  0  0  0  0  0  0
  -43.1202   59.3526   65.8800 H   0  0  0  0  0  0  0  0  0  0  0  0
  -45.5856   58.8129   67.8409 H   0  0  0  0  0  0  0  0  0  0  0  0
 12 13  1  0  0  0
  9 10  2  0  0  0
  9  8  1  0  0  0
  6  7  2  0  0  0
  6  8  1  0  0  0
 10 11  1  0  0  0
  7  5  1  0  0  0
 16 17  2  0  0  0
 16 18  1  0  0  0
 17 19  1  0  0  0
 18 21  2  0  0  0
 13 11  1  0  0  0
  5  4  1  0  0  0
  4  3  1  0  0  0
  3  2  1  0  0  0
  2  1  1  0  0  0
  1 14  1  0  0  0
 14 15  1  0  0  0
 15 21  1  0  0  0
 19 20  2  0  0  0
 19 22  1  0  0  0
 20 21  1  0  0  0
 20 23  1  0  0  0
 22 24  1  0  0  0
 23 25  1  0  0  0
M  END
> <minimizedAffinity>
-8.47501

> <CNNscore>
0.4954980016

> <CNNaffinity>
6.2997341156

> <CNN_VS>
3.1215057373

> <CNNaffinity_variance>
0.1048890799

$$$$
/media/chris/experiments/cd1a-new-docking/inputs/ligands/5j1a_ligand.pdb


 25 25  0  0  0  0  0  0  0  0999 V2000
  -46.6627   60.4477   62.0199 C   0  0  0  0  0  0  0  0  0  0  0  0
  -46.5167   60.3789   63.5473 C   0  0  0  0  0  0  0  0  0  0  0  0
  -45.0457   60.3772   63.9402 C   0  0  0  0  0  0  0  0  0  0  0  0
  -44.8139   59.3351   65.0349 C   0  0  0  0  0  0  0  0  0  0  0  0
  -45.2731   57.9578   64.5567 C   0  0  0  0  0  0  0  0  0  0  0  0
  -46.7162   56.6738   66.3857 C   0  0  0  0  0  0  0  0  0  0  0  0
  -45.3479   57.0398   65.7781 C   0  0  0  0  0  0  0  0  0  0  0  0
  -48.0264   57.2988   65.8826 C   0  0  0  0  0  0  0  0  0  0  0  0
  -48.1045   58.7181   66.4640 C   0  0  0  0  0  0  0  0  0  0  0  0
  -49.3396   59.6250   66.2474 C   0  0  0  0  0  0  0  0  0  0  0  0
  -50.5761   59.1405   65.4653 C   0  0  0  0  0  0  0  0  0  0  0  0
  -51.1779   60.0390   63.1721 C   0  0  0  0  0  0  0  0  0  0  0  0
  -51.1163   60.3382   64.6719 C   0  0  0  0  0  0  0  0  0  0  0  0
  -45.5728   59.6457   61.2623 C   0  0  0  0  0  0  0  0  0  0  0  0
  -45.9906   58.1871   60.9600 C   0  0  0  0  0  0  0  0  0  0  0  0
  -46.5176   57.9202   57.2985 C   0  0  0  0  0  0  0  0  0  0  0  0
  -47.9126   57.8258   57.2073 C   0  0  0  0  0  0  0  0  0  0  0  0
  -45.8970   58.0427   58.5475 C   0  0  0  0  0  0  0  0  0  0  0  0
  -48.6649   57.8526   58.3814 C   0  0  0  0  0  0  0  0  0  0  0  0
  -48.0401   57.9669   59.6221 C   0  0  0  0  0  0  0  0  0  0  0  0
  -46.6452   58.0359   59.7300 C   0  0  0  0  0  0  0  0  0  0  0  0
  -50.0179   57.7691   58.3786 O   0  0  0  0  0  0  0  0  0  0  0  0
  -48.8162   57.9810   60.7442 O   0  0  0  0  0  0  0  0  0  0  0  0
  -50.4809   57.6911   57.5678 H   0  0  0  0  0  0  0  0  0  0  0  0
  -49.7490   57.9347   60.6694 H   0  0  0  0  0  0  0  0  0  0  0  0
 12 13  1  0  0  0
  9 10  2  0  0  0
  9  8  1  0  0  0
  6  7  2  0  0  0
  6  8  1  0  0  0
 10 11  1  0  0  0
  7  5  1  0  0  0
 16 17  2  0  0  0
 16 18  1  0  0  0
 17 19  1  0  0  0
 18 21  2  0  0  0
 13 11  1  0  0  0
  5  4  1  0  0  0
  4  3  1  0  0  0
  3  2  1  0  0  0
  2  1  1  0  0  0
  1 14  1  0  0  0
 14 15  1  0  0  0
 15 21  1  0  0  0
 19 20  2  0  0  0
 19 22  1  0  0  0
 20 21  1  0  0  0
 20 23  1  0  0  0
 22 24  1  0  0  0
 23 25  1  0  0  0
M  END
> <minimizedAffinity>
-7.63134

> <CNNscore>
0.4762059152

> <CNNaffinity>
6.6425981522

> <CNN_VS>
3.1632444859

> <CNNaffinity_variance>
0.3446930945

$$$$
/media/chris/experiments/cd1a-new-docking/inputs/ligands/5j1a_ligand.pdb


 25 25  0  0  0  0  0  0  0  0999 V2000
  -47.9985   58.8962   63.3352 C   0  0  0  0  0  0  0  0  0  0  0  0
  -49.3611   59.5617   63.5790 C   0  0  0  0  0  0  0  0  0  0  0  0
  -50.3385   59.1908   62.4721 C   0  0  0  0  0  0  0  0  0  0  0  0
  -49.6743   58.1947   61.5210 C   0  0  0  0  0  0  0  0  0  0  0  0
  -49.7196   58.7243   60.0879 C   0  0  0  0  0  0  0  0  0  0  0  0
  -48.2881   60.9465   59.7899 C   0  0  0  0  0  0  0  0  0  0  0  0
  -49.6147   60.2492   60.1493 C   0  0  0  0  0  0  0  0  0  0  0  0
  -47.0070   60.1558   59.4831 C   0  0  0  0  0  0  0  0  0  0  0  0
  -47.0824   59.7234   58.0114 C   0  0  0  0  0  0  0  0  0  0  0  0
  -46.6553   58.3092   57.5505 C   0  0  0  0  0  0  0  0  0  0  0  0
  -46.1638   57.2431   58.5491 C   0  0  0  0  0  0  0  0  0  0  0  0
  -47.3148   55.5480   57.0557 C   0  0  0  0  0  0  0  0  0  0  0  0
  -47.1471   56.0663   58.4860 C   0  0  0  0  0  0  0  0  0  0  0  0
  -46.9708   59.1703   64.4638 C   0  0  0  0  0  0  0  0  0  0  0  0
  -46.7025   60.6771   64.6896 C   0  0  0  0  0  0  0  0  0  0  0  0
  -45.2886   62.5279   61.8033 C   0  0  0  0  0  0  0  0  0  0  0  0
  -43.9184   62.2617   61.9246 C   0  0  0  0  0  0  0  0  0  0  0  0
  -46.1975   61.9933   62.7243 C   0  0  0  0  0  0  0  0  0  0  0  0
  -43.4816   61.4602   62.9792 C   0  0  0  0  0  0  0  0  0  0  0  0
  -44.3911   60.9376   63.8972 C   0  0  0  0  0  0  0  0  0  0  0  0
  -45.7605   61.2167   63.8033 C   0  0  0  0  0  0  0  0  0  0  0  0
  -42.1742   61.1537   63.1648 O   0  0  0  0  0  0  0  0  0  0  0  0
  -43.9170   60.1652   64.9172 O   0  0  0  0  0  0  0  0  0  0  0  0
  -41.5271   61.4827   62.5725 H   0  0  0  0  0  0  0  0  0  0  0  0
  -43.0005   59.9799   64.9778 H   0  0  0  0  0  0  0  0  0  0  0  0
 12 13  1  0  0  0
  9 10  2  0  0  0
  9  8  1  0  0  0
  6  7  2  0  0  0
  6  8  1  0  0  0
 10 11  1  0  0  0
  7  5  1  0  0  0
 16 17  2  0  0  0
 16 18  1  0  0  0
 17 19  1  0  0  0
 18 21  2  0  0  0
 13 11  1  0  0  0
  5  4  1  0  0  0
  4  3  1  0  0  0
  3  2  1  0  0  0
  2  1  1  0  0  0
  1 14  1  0  0  0
 14 15  1  0  0  0
 15 21  1  0  0  0
 19 20  2  0  0  0
 19 22  1  0  0  0
 20 21  1  0  0  0
 20 23  1  0  0  0
 22 24  1  0  0  0
 23 25  1  0  0  0
M  END
> <minimizedAffinity>
-7.57185

> <CNNscore>
0.3921469450

> <CNNaffinity>
6.1695542336

> <CNN_VS>
2.4193718433

> <CNNaffinity_variance>
0.1213545352

$$$$
/media/chris/experiments/cd1a-new-docking/inputs/ligands/5j1a_ligand.pdb


 25 25  0  0  0  0  0  0  0  0999 V2000
  -48.2486   59.6336   61.3974 C   0  0  0  0  0  0  0  0  0  0  0  0
  -49.7276   60.0454   61.3533 C   0  0  0  0  0  0  0  0  0  0  0  0
  -50.5539   59.1553   62.2714 C   0  0  0  0  0  0  0  0  0  0  0  0
  -51.1672   60.0048   63.3850 C   0  0  0  0  0  0  0  0  0  0  0  0
  -50.2682   59.9815   64.6210 C   0  0  0  0  0  0  0  0  0  0  0  0
  -48.9485   57.9821   65.7773 C   0  0  0  0  0  0  0  0  0  0  0  0
  -50.2384   58.5467   65.1505 C   0  0  0  0  0  0  0  0  0  0  0  0
  -47.6307   58.7721   65.7846 C   0  0  0  0  0  0  0  0  0  0  0  0
  -46.7659   58.2223   64.6408 C   0  0  0  0  0  0  0  0  0  0  0  0
  -45.6741   59.0783   63.9553 C   0  0  0  0  0  0  0  0  0  0  0  0
  -45.3694   60.5200   64.4070 C   0  0  0  0  0  0  0  0  0  0  0  0
  -44.8408   60.9751   61.9694 C   0  0  0  0  0  0  0  0  0  0  0  0
  -44.3563   61.1079   63.4152 C   0  0  0  0  0  0  0  0  0  0  0  0
  -48.0303   58.1088   61.2176 C   0  0  0  0  0  0  0  0  0  0  0  0
  -46.7465   57.7673   60.4247 C   0  0  0  0  0  0  0  0  0  0  0  0
  -47.0816   58.3424   56.7761 C   0  0  0  0  0  0  0  0  0  0  0  0
  -47.5194   57.0923   56.3193 C   0  0  0  0  0  0  0  0  0  0  0  0
  -46.8335   58.5508   58.1382 C   0  0  0  0  0  0  0  0  0  0  0  0
  -47.6978   56.0647   57.2453 C   0  0  0  0  0  0  0  0  0  0  0  0
  -47.4415   56.2767   58.5989 C   0  0  0  0  0  0  0  0  0  0  0  0
  -46.9786   57.5134   59.0662 C   0  0  0  0  0  0  0  0  0  0  0  0
  -48.1208   54.8282   56.8849 O   0  0  0  0  0  0  0  0  0  0  0  0
  -47.6226   55.2398   59.4671 O   0  0  0  0  0  0  0  0  0  0  0  0
  -48.3055   54.6397   55.9859 H   0  0  0  0  0  0  0  0  0  0  0  0
  -47.9323   54.4135   59.1520 H   0  0  0  0  0  0  0  0  0  0  0  0
 12 13  1  0  0  0
  9 10  2  0  0  0
  9  8  1  0  0  0
  6  7  2  0  0  0
  6  8  1  0  0  0
 10 11  1  0  0  0
  7  5  1  0  0  0
 16 17  2  0  0  0
 16 18  1  0  0  0
 17 19  1  0  0  0
 18 21  2  0  0  0
 13 11  1  0  0  0
  5  4  1  0  0  0
  4  3  1  0  0  0
  3  2  1  0  0  0
  2  1  1  0  0  0
  1 14  1  0  0  0
 14 15  1  0  0  0
 15 21  1  0  0  0
 19 20  2  0  0  0
 19 22  1  0  0  0
 20 21  1  0  0  0
 20 23  1  0  0  0
 22 24  1  0  0  0
 23 25  1  0  0  0
M  END
> <minimizedAffinity>
-7.73411

> <CNNscore>
0.3810786307

> <CNNaffinity>
6.8437333107

> <CNN_VS>
2.6080005169

> <CNNaffinity_variance>
0.1131615415

$$$$
/media/chris/experiments/cd1a-new-docking/inputs/ligands/5j1a_ligand.pdb


 25 25  0  0  0  0  0  0  0  0999 V2000
  -46.6533   58.7567   62.9987 C   0  0  0  0  0  0  0  0  0  0  0  0
  -46.8577   59.0191   61.4992 C   0  0  0  0  0  0  0  0  0  0  0  0
  -45.5914   58.6821   60.7240 C   0  0  0  0  0  0  0  0  0  0  0  0
  -45.9481   57.7971   59.5292 C   0  0  0  0  0  0  0  0  0  0  0  0
  -46.5724   58.6399   58.4172 C   0  0  0  0  0  0  0  0  0  0  0  0
  -49.0642   57.8211   57.9736 C   0  0  0  0  0  0  0  0  0  0  0  0
  -47.5579   57.7522   57.6550 C   0  0  0  0  0  0  0  0  0  0  0  0
  -49.6165   58.6708   59.1285 C   0  0  0  0  0  0  0  0  0  0  0  0
  -50.1538   57.6995   60.1897 C   0  0  0  0  0  0  0  0  0  0  0  0
  -50.5766   58.1785   61.5991 C   0  0  0  0  0  0  0  0  0  0  0  0
  -50.5155   59.6642   62.0045 C   0  0  0  0  0  0  0  0  0  0  0  0
  -50.3084   58.6935   64.3376 C   0  0  0  0  0  0  0  0  0  0  0  0
  -50.9742   59.7610   63.4660 C   0  0  0  0  0  0  0  0  0  0  0  0
  -46.9913   59.9815   63.8879 C   0  0  0  0  0  0  0  0  0  0  0  0
  -45.7537   60.5748   64.6020 C   0  0  0  0  0  0  0  0  0  0  0  0
  -44.3412   62.6016   61.8357 C   0  0  0  0  0  0  0  0  0  0  0  0
  -42.9894   62.2341   61.8611 C   0  0  0  0  0  0  0  0  0  0  0  0
  -45.2440   62.0410   62.7472 C   0  0  0  0  0  0  0  0  0  0  0  0
  -42.5644   61.3057   62.8112 C   0  0  0  0  0  0  0  0  0  0  0  0
  -43.4671   60.7573   63.7208 C   0  0  0  0  0  0  0  0  0  0  0  0
  -44.8160   61.1348   63.7239 C   0  0  0  0  0  0  0  0  0  0  0  0
  -41.2752   60.8961   62.8999 O   0  0  0  0  0  0  0  0  0  0  0  0
  -43.0044   59.8587   64.6374 O   0  0  0  0  0  0  0  0  0  0  0  0
  -40.6333   61.2378   62.3091 H   0  0  0  0  0  0  0  0  0  0  0  0
  -42.1017   59.6077   64.6332 H   0  0  0  0  0  0  0  0  0  0  0  0
 12 13  1  0  0  0
  9 10  2  0  0  0
  9  8  1  0  0  0
  6  7  2  0  0  0
  6  8  1  0  0  0
 10 11  1  0  0  0
  7  5  1  0  0  0
 16 17  2  0  0  0
 16 18  1  0  0  0
 17 19  1  0  0  0
 18 21  2  0  0  0
 13 11  1  0  0  0
  5  4  1  0  0  0
  4  3  1  0  0  0
  3  2  1  0  0  0
  2  1  1  0  0  0
  1 14  1  0  0  0
 14 15  1  0  0  0
 15 21  1  0  0  0
 19 20  2  0  0  0
 19 22  1  0  0  0
 20 21  1  0  0  0
 20 23  1  0  0  0
 22 24  1  0  0  0
 23 25  1  0  0  0
M  END
> <minimizedAffinity>
-7.68923

> <CNNscore>
0.3643155098

> <CNNaffinity>
6.1696715355

> <CNN_VS>
2.2477071285

> <CNNaffinity_variance>
0.1454678476

$$$$
/media/chris/experiments/cd1a-new-docking/inputs/ligands/5j1a_ligand.pdb


 25 25  0  0  0  0  0  0  0  0999 V2000
  -50.6331   58.7911   62.7867 C   0  0  0  0  0  0  0  0  0  0  0  0
  -50.0340   57.6877   61.9021 C   0  0  0  0  0  0  0  0  0  0  0  0
  -50.5891   57.7816   60.4874 C   0  0  0  0  0  0  0  0  0  0  0  0
  -49.6195   57.1078   59.5159 C   0  0  0  0  0  0  0  0  0  0  0  0
  -49.4742   57.9494   58.2482 C   0  0  0  0  0  0  0  0  0  0  0  0
  -47.1628   57.2829   57.1126 C   0  0  0  0  0  0  0  0  0  0  0  0
  -48.6916   57.1234   57.2258 C   0  0  0  0  0  0  0  0  0  0  0  0
  -46.3910   58.3427   57.9136 C   0  0  0  0  0  0  0  0  0  0  0  0
  -45.9566   57.6871   59.2326 C   0  0  0  0  0  0  0  0  0  0  0  0
  -45.7792   58.5050   60.5342 C   0  0  0  0  0  0  0  0  0  0  0  0
  -46.0634   60.0189   60.5875 C   0  0  0  0  0  0  0  0  0  0  0  0
  -48.3230   61.0146   60.0121 C   0  0  0  0  0  0  0  0  0  0  0  0
  -47.5225   60.1973   61.0288 C   0  0  0  0  0  0  0  0  0  0  0  0
  -49.6663   59.2814   63.8957 C   0  0  0  0  0  0  0  0  0  0  0  0
  -49.8752   58.5592   65.2478 C   0  0  0  0  0  0  0  0  0  0  0  0
  -47.0738   56.2480   65.9998 C   0  0  0  0  0  0  0  0  0  0  0  0
  -46.3516   56.9635   66.9640 C   0  0  0  0  0  0  0  0  0  0  0  0
  -48.2397   56.7882   65.4440 C   0  0  0  0  0  0  0  0  0  0  0  0
  -46.8147   58.2203   67.3529 C   0  0  0  0  0  0  0  0  0  0  0  0
  -47.9720   58.7556   66.7898 C   0  0  0  0  0  0  0  0  0  0  0  0
  -48.6895   58.0629   65.8062 C   0  0  0  0  0  0  0  0  0  0  0  0
  -46.1756   58.9743   68.2807 O   0  0  0  0  0  0  0  0  0  0  0  0
  -48.3828   59.9919   67.1954 O   0  0  0  0  0  0  0  0  0  0  0  0
  -45.3936   58.6549   68.6862 H   0  0  0  0  0  0  0  0  0  0  0  0
  -47.9011   60.4532   67.8535 H   0  0  0  0  0  0  0  0  0  0  0  0
 12 13  1  0  0  0
  9 10  2  0  0  0
  9  8  1  0  0  0
  6  7  2  0  0  0
  6  8  1  0  0  0
 10 11  1  0  0  0
  7  5  1  0  0  0
 16 17  2  0  0  0
 16 18  1  0  0  0
 17 19  1  0  0  0
 18 21  2  0  0  0
 13 11  1  0  0  0
  5  4  1  0  0  0
  4  3  1  0  0  0
  3  2  1  0  0  0
  2  1  1  0  0  0
  1 14  1  0  0  0
 14 15  1  0  0  0
 15 21  1  0  0  0
 19 20  2  0  0  0
 19 22  1  0  0  0
 20 21  1  0  0  0
 20 23  1  0  0  0
 22 24  1  0  0  0
 23 25  1  0  0  0
M  END
> <minimizedAffinity>
-8.47984

> <CNNscore>
0.3561564386

> <CNNaffinity>
6.2360558510

> <CNN_VS>
2.2210114002

> <CNNaffinity_variance>
0.2466530800

$$$$
/media/chris/experiments/cd1a-new-docking/inputs/ligands/5j1a_ligand.pdb


 25 25  0  0  0  0  0  0  0  0999 V2000
  -49.6371   59.1322   64.3287 C   0  0  0  0  0  0  0  0  0  0  0  0
  -50.8070   59.6151   63.4586 C   0  0  0  0  0  0  0  0  0  0  0  0
  -50.8029   58.8955   62.1168 C   0  0  0  0  0  0  0  0  0  0  0  0
  -49.6799   57.8579   62.1007 C   0  0  0  0  0  0  0  0  0  0  0  0
  -49.8076   56.9625   60.8685 C   0  0  0  0  0  0  0  0  0  0  0  0
  -49.7480   57.9049   58.3816 C   0  0  0  0  0  0  0  0  0  0  0  0
  -50.4444   57.7918   59.7519 C   0  0  0  0  0  0  0  0  0  0  0  0
  -48.3561   57.3086   58.1214 C   0  0  0  0  0  0  0  0  0  0  0  0
  -47.4423   58.4632   57.6851 C   0  0  0  0  0  0  0  0  0  0  0  0
  -46.6455   59.3082   58.7076 C   0  0  0  0  0  0  0  0  0  0  0  0
  -46.6970   59.0148   60.2198 C   0  0  0  0  0  0  0  0  0  0  0  0
  -48.3021   60.9768   60.2715 C   0  0  0  0  0  0  0  0  0  0  0  0
  -47.0857   60.3198   60.9281 C   0  0  0  0  0  0  0  0  0  0  0  0
  -48.8032   60.2911   64.9342 C   0  0  0  0  0  0  0  0  0  0  0  0
  -47.2774   60.0897   64.7766 C   0  0  0  0  0  0  0  0  0  0  0  0
  -46.4659   58.0761   67.7836 C   0  0  0  0  0  0  0  0  0  0  0  0
  -45.6800   57.0478   67.2469 C   0  0  0  0  0  0  0  0  0  0  0  0
  -46.9842   59.0772   66.9534 C   0  0  0  0  0  0  0  0  0  0  0  0
  -45.4301   57.0410   65.8748 C   0  0  0  0  0  0  0  0  0  0  0  0
  -45.9558   58.0365   65.0528 C   0  0  0  0  0  0  0  0  0  0  0  0
  -46.7644   59.0559   65.5716 C   0  0  0  0  0  0  0  0  0  0  0  0
  -44.6781   56.0836   65.2786 O   0  0  0  0  0  0  0  0  0  0  0  0
  -45.6913   57.9847   63.7152 O   0  0  0  0  0  0  0  0  0  0  0  0
  -44.3041   55.3944   65.7916 H   0  0  0  0  0  0  0  0  0  0  0  0
  -45.1502   57.3018   63.3707 H   0  0  0  0  0  0  0  0  0  0  0  0
 12 13  1  0  0  0
  9 10  2  0  0  0
  9  8  1  0  0  0
  6  7  2  0  0  0
  6  8  1  0  0  0
 10 11  1  0  0  0
  7  5  1  0  0  0
 16 17  2  0  0  0
 16 18  1  0  0  0
 17 19  1  0  0  0
 18 21  2  0  0  0
 13 11  1  0  0  0
  5  4  1  0  0  0
  4  3  1  0  0  0
  3  2  1  0  0  0
  2  1  1  0  0  0
  1 14  1  0  0  0
 14 15  1  0  0  0
 15 21  1  0  0  0
 19 20  2  0  0  0
 19 22  1  0  0  0
 20 21  1  0  0  0
 20 23  1  0  0  0
 22 24  1  0  0  0
 23 25  1  0  0  0
M  END
> <minimizedAffinity>
-7.64236

> <CNNscore>
0.3522002101

> <CNNaffinity>
6.3891782761

> <CNN_VS>
2.2502698898

> <CNNaffinity_variance>
0.1716335118

$$$$
