/media/chris/experiments/cd1a-new-docking/inputs/ligands/5j1a_ligand.pdb


 25 25  0  0  0  0  0  0  0  0999 V2000
  -49.5521   59.4894   64.6545 C   0  0  0  0  0  0  0  0  0  0  0  0
  -50.7687   60.1369   63.9765 C   0  0  0  0  0  0  0  0  0  0  0  0
  -51.1668   59.3488   62.7361 C   0  0  0  0  0  0  0  0  0  0  0  0
  -50.0361   59.4136   61.7089 C   0  0  0  0  0  0  0  0  0  0  0  0
  -49.8089   58.0355   61.0880 C   0  0  0  0  0  0  0  0  0  0  0  0
  -49.4624   57.2089   58.5833 C   0  0  0  0  0  0  0  0  0  0  0  0
  -50.1641   58.1275   59.6028 C   0  0  0  0  0  0  0  0  0  0  0  0
  -48.3136   56.2710   58.9846 C   0  0  0  0  0  0  0  0  0  0  0  0
  -47.2165   56.4159   57.9199 C   0  0  0  0  0  0  0  0  0  0  0  0
  -46.2636   57.6349   57.8867 C   0  0  0  0  0  0  0  0  0  0  0  0
  -46.3396   58.7546   58.9430 C   0  0  0  0  0  0  0  0  0  0  0  0
  -47.5317   60.9456   59.3979 C   0  0  0  0  0  0  0  0  0  0  0  0
  -47.1706   59.8969   58.3430 C   0  0  0  0  0  0  0  0  0  0  0  0
  -49.4719   59.7774   66.1762 C   0  0  0  0  0  0  0  0  0  0  0  0
  -48.0628   60.2181   66.6386 C   0  0  0  0  0  0  0  0  0  0  0  0
  -46.0451   57.1198   66.9304 C   0  0  0  0  0  0  0  0  0  0  0  0
  -45.0314   57.3380   65.9880 C   0  0  0  0  0  0  0  0  0  0  0  0
  -47.0389   58.0841   67.1364 C   0  0  0  0  0  0  0  0  0  0  0  0
  -45.0363   58.5282   65.2609 C   0  0  0  0  0  0  0  0  0  0  0  0
  -46.0334   59.4805   65.4654 C   0  0  0  0  0  0  0  0  0  0  0  0
  -47.0672   59.2646   66.3856 C   0  0  0  0  0  0  0  0  0  0  0  0
  -44.0906   58.8162   64.3334 O   0  0  0  0  0  0  0  0  0  0  0  0
  -46.0021   60.6266   64.7256 O   0  0  0  0  0  0  0  0  0  0  0  0
  -43.4009   58.2055   64.1624 H   0  0  0  0  0  0  0  0  0  0  0  0
  -45.3093   60.7687   64.1109 H   0  0  0  0  0  0  0  0  0  0  0  0
 12 13  1  0  0  0
  9 10  2  0  0  0
  9  8  1  0  0  0
  6  7  2  0  0  0
  6  8  1  0  0  0
 10 11  1  0  0  0
  7  5  1  0  0  0
 16 17  2  0  0  0
 16 18  1  0  0  0
 17 19  1  0  0  0
 18 21  2  0  0  0
 13 11  1  0  0  0
  5  4  1  0  0  0
  4  3  1  0  0  0
  3  2  1  0  0  0
  2  1  1  0  0  0
  1 14  1  0  0  0
 14 15  1  0  0  0
 15 21  1  0  0  0
 19 20  2  0  0  0
 19 22  1  0  0  0
 20 21  1  0  0  0
 20 23  1  0  0  0
 22 24  1  0  0  0
 23 25  1  0  0  0
M  END
> <minimizedAffinity>
-7.65163

> <CNNscore>
0.7069482207

> <CNNaffinity>
6.5845122337

> <CNN_VS>
4.6549091339

> <CNNaffinity_variance>
0.2021624744

$$$$
/media/chris/experiments/cd1a-new-docking/inputs/ligands/5j1a_ligand.pdb


 25 25  0  0  0  0  0  0  0  0999 V2000
  -48.4665   56.2701   59.8706 C   0  0  0  0  0  0  0  0  0  0  0  0
  -49.9562   56.6414   59.9141 C   0  0  0  0  0  0  0  0  0  0  0  0
  -50.1316   58.0769   60.3903 C   0  0  0  0  0  0  0  0  0  0  0  0
  -49.6279   58.1998   61.8288 C   0  0  0  0  0  0  0  0  0  0  0  0
  -49.6631   59.6609   62.2762 C   0  0  0  0  0  0  0  0  0  0  0  0
  -51.1760   60.0980   64.4203 C   0  0  0  0  0  0  0  0  0  0  0  0
  -51.0367   59.9275   62.8948 C   0  0  0  0  0  0  0  0  0  0  0  0
  -49.9920   59.8886   65.3768 C   0  0  0  0  0  0  0  0  0  0  0  0
  -49.9817   58.4036   65.7677 C   0  0  0  0  0  0  0  0  0  0  0  0
  -48.7232   57.5198   65.5939 C   0  0  0  0  0  0  0  0  0  0  0  0
  -47.3981   58.0905   65.0518 C   0  0  0  0  0  0  0  0  0  0  0  0
  -46.6184   58.4671   67.4348 C   0  0  0  0  0  0  0  0  0  0  0  0
  -46.3105   57.7962   66.0939 C   0  0  0  0  0  0  0  0  0  0  0  0
  -47.7792   56.6449   58.5319 C   0  0  0  0  0  0  0  0  0  0  0  0
  -46.4482   57.4094   58.7244 C   0  0  0  0  0  0  0  0  0  0  0  0
  -47.4872   60.9253   59.2856 C   0  0  0  0  0  0  0  0  0  0  0  0
  -46.8791   61.2202   60.5130 C   0  0  0  0  0  0  0  0  0  0  0  0
  -47.3321   59.6607   58.7052 C   0  0  0  0  0  0  0  0  0  0  0  0
  -46.1236   60.2310   61.1423 C   0  0  0  0  0  0  0  0  0  0  0  0
  -45.9800   58.9715   60.5627 C   0  0  0  0  0  0  0  0  0  0  0  0
  -46.6032   58.6544   59.3490 C   0  0  0  0  0  0  0  0  0  0  0  0
  -45.5019   60.4373   62.3291 O   0  0  0  0  0  0  0  0  0  0  0  0
  -45.2380   58.0327   61.2183 O   0  0  0  0  0  0  0  0  0  0  0  0
  -45.5708   61.2687   62.7558 H   0  0  0  0  0  0  0  0  0  0  0  0
  -44.8220   58.2475   62.0300 H   0  0  0  0  0  0  0  0  0  0  0  0
 12 13  1  0  0  0
  9 10  2  0  0  0
  9  8  1  0  0  0
  6  7  2  0  0  0
  6  8  1  0  0  0
 10 11  1  0  0  0
  7  5  1  0  0  0
 16 17  2  0  0  0
 16 18  1  0  0  0
 17 19  1  0  0  0
 18 21  2  0  0  0
 13 11  1  0  0  0
  5  4  1  0  0  0
  4  3  1  0  0  0
  3  2  1  0  0  0
  2  1  1  0  0  0
  1 14  1  0  0  0
 14 15  1  0  0  0
 15 21  1  0  0  0
 19 20  2  0  0  0
 19 22  1  0  0  0
 20 21  1  0  0  0
 20 23  1  0  0  0
 22 24  1  0  0  0
 23 25  1  0  0  0
M  END
> <minimizedAffinity>
-7.71597

> <CNNscore>
0.5552765727

> <CNNaffinity>
6.6255402565

> <CNN_VS>
3.6790072918

> <CNNaffinity_variance>
0.3157648742

$$$$
/media/chris/experiments/cd1a-new-docking/inputs/ligands/5j1a_ligand.pdb


 25 25  0  0  0  0  0  0  0  0999 V2000
  -48.3001   60.3361   64.3496 C   0  0  0  0  0  0  0  0  0  0  0  0
  -48.5417   59.0155   63.6035 C   0  0  0  0  0  0  0  0  0  0  0  0
  -50.0290   58.6922   63.5649 C   0  0  0  0  0  0  0  0  0  0  0  0
  -50.4461   58.3923   62.1247 C   0  0  0  0  0  0  0  0  0  0  0  0
  -49.4589   57.4180   61.4824 C   0  0  0  0  0  0  0  0  0  0  0  0
  -49.0477   56.4068   59.0564 C   0  0  0  0  0  0  0  0  0  0  0  0
  -49.9789   57.0793   60.0841 C   0  0  0  0  0  0  0  0  0  0  0  0
  -47.5569   56.1664   59.3401 C   0  0  0  0  0  0  0  0  0  0  0  0
  -46.7651   56.8530   58.2177 C   0  0  0  0  0  0  0  0  0  0  0  0
  -46.3004   58.3252   58.3257 C   0  0  0  0  0  0  0  0  0  0  0  0
  -46.5758   59.1740   59.5823 C   0  0  0  0  0  0  0  0  0  0  0  0
  -48.0912   61.0317   60.4075 C   0  0  0  0  0  0  0  0  0  0  0  0
  -47.8565   59.9786   59.3218 C   0  0  0  0  0  0  0  0  0  0  0  0
  -46.8539   60.4796   64.8909 C   0  0  0  0  0  0  0  0  0  0  0  0
  -45.8003   59.7714   64.0068 C   0  0  0  0  0  0  0  0  0  0  0  0
  -44.3510   62.4422   61.8803 C   0  0  0  0  0  0  0  0  0  0  0  0
  -42.9920   62.3818   62.2160 C   0  0  0  0  0  0  0  0  0  0  0  0
  -45.2670   61.5692   62.4792 C   0  0  0  0  0  0  0  0  0  0  0  0
  -42.5747   61.4410   63.1573 C   0  0  0  0  0  0  0  0  0  0  0  0
  -43.4934   60.5801   63.7556 C   0  0  0  0  0  0  0  0  0  0  0  0
  -44.8585   60.6466   63.4488 C   0  0  0  0  0  0  0  0  0  0  0  0
  -41.2785   61.3169   63.5344 O   0  0  0  0  0  0  0  0  0  0  0  0
  -43.0406   59.6812   64.6768 O   0  0  0  0  0  0  0  0  0  0  0  0
  -40.6259   61.8745   63.1586 H   0  0  0  0  0  0  0  0  0  0  0  0
  -42.1268   59.6387   64.8801 H   0  0  0  0  0  0  0  0  0  0  0  0
 12 13  1  0  0  0
  9 10  2  0  0  0
  9  8  1  0  0  0
  6  7  2  0  0  0
  6  8  1  0  0  0
 10 11  1  0  0  0
  7  5  1  0  0  0
 16 17  2  0  0  0
 16 18  1  0  0  0
 17 19  1  0  0  0
 18 21  2  0  0  0
 13 11  1  0  0  0
  5  4  1  0  0  0
  4  3  1  0  0  0
  3  2  1  0  0  0
  2  1  1  0  0  0
  1 14  1  0  0  0
 14 15  1  0  0  0
 15 21  1  0  0  0
 19 20  2  0  0  0
 19 22  1  0  0  0
 20 21  1  0  0  0
 20 23  1  0  0  0
 22 24  1  0  0  0
 23 25  1  0  0  0
M  END
> <minimizedAffinity>
-7.19836

> <CNNscore>
0.5387913585

> <CNNaffinity>
6.3552045822

> <CNN_VS>
3.4241292477

> <CNNaffinity_variance>
0.1797160208

$$$$
/media/chris/experiments/cd1a-new-docking/inputs/ligands/5j1a_ligand.pdb


 25 25  0  0  0  0  0  0  0  0999 V2000
  -47.5705   58.8661   66.4434 C   0  0  0  0  0  0  0  0  0  0  0  0
  -49.0987   58.9208   66.3004 C   0  0  0  0  0  0  0  0  0  0  0  0
  -49.5485   58.1068   65.0949 C   0  0  0  0  0  0  0  0  0  0  0  0
  -49.9982   59.0540   63.9819 C   0  0  0  0  0  0  0  0  0  0  0  0
  -49.5482   58.5202   62.6221 C   0  0  0  0  0  0  0  0  0  0  0  0
  -50.7170   57.4562   60.4823 C   0  0  0  0  0  0  0  0  0  0  0  0
  -50.7988   58.3015   61.7685 C   0  0  0  0  0  0  0  0  0  0  0  0
  -49.3838   56.9131   59.9456 C   0  0  0  0  0  0  0  0  0  0  0  0
  -49.1182   57.6089   58.6026 C   0  0  0  0  0  0  0  0  0  0  0  0
  -48.1752   58.8304   58.4855 C   0  0  0  0  0  0  0  0  0  0  0  0
  -47.4214   59.3947   59.7056 C   0  0  0  0  0  0  0  0  0  0  0  0
  -45.8236   58.2618   61.3156 C   0  0  0  0  0  0  0  0  0  0  0  0
  -46.1193   58.5955   59.8513 C   0  0  0  0  0  0  0  0  0  0  0  0
  -46.8660   60.1782   66.0106 C   0  0  0  0  0  0  0  0  0  0  0  0
  -45.5327   59.9354   65.2646 C   0  0  0  0  0  0  0  0  0  0  0  0
  -46.4365   61.9486   62.2837 C   0  0  0  0  0  0  0  0  0  0  0  0
  -45.1848   62.1979   61.7055 C   0  0  0  0  0  0  0  0  0  0  0  0
  -46.5350   61.1952   63.4596 C   0  0  0  0  0  0  0  0  0  0  0  0
  -44.0453   61.6854   62.3255 C   0  0  0  0  0  0  0  0  0  0  0  0
  -44.1501   60.9429   63.5005 C   0  0  0  0  0  0  0  0  0  0  0  0
  -45.3923   60.7078   64.1036 C   0  0  0  0  0  0  0  0  0  0  0  0
  -42.7991   61.8796   61.8288 O   0  0  0  0  0  0  0  0  0  0  0  0
  -43.0076   60.4681   64.0759 O   0  0  0  0  0  0  0  0  0  0  0  0
  -42.6804   62.3727   61.0409 H   0  0  0  0  0  0  0  0  0  0  0  0
  -42.1779   60.6267   63.6703 H   0  0  0  0  0  0  0  0  0  0  0  0
 12 13  1  0  0  0
  9 10  2  0  0  0
  9  8  1  0  0  0
  6  7  2  0  0  0
  6  8  1  0  0  0
 10 11  1  0  0  0
  7  5  1  0  0  0
 16 17  2  0  0  0
 16 18  1  0  0  0
 17 19  1  0  0  0
 18 21  2  0  0  0
 13 11  1  0  0  0
  5  4  1  0  0  0
  4  3  1  0  0  0
  3  2  1  0  0  0
  2  1  1  0  0  0
  1 14  1  0  0  0
 14 15  1  0  0  0
 15 21  1  0  0  0
 19 20  2  0  0  0
 19 22  1  0  0  0
 20 21  1  0  0  0
 20 23  1  0  0  0
 22 24  1  0  0  0
 23 25  1  0  0  0
M  END
> <minimizedAffinity>
-7.19065

> <CNNscore>
0.4904509187

> <CNNaffinity>
6.3398022652

> <CNN_VS>
3.1093618870

> <CNNaffinity_variance>
0.3440261483

$$$$
/media/chris/experiments/cd1a-new-docking/inputs/ligands/5j1a_ligand.pdb


 25 25  0  0  0  0  0  0  0  0999 V2000
  -49.9049   58.6714   64.5854 C   0  0  0  0  0  0  0  0  0  0  0  0
  -50.9206   59.6841   64.0361 C   0  0  0  0  0  0  0  0  0  0  0  0
  -51.1744   59.4318   62.5563 C   0  0  0  0  0  0  0  0  0  0  0  0
  -50.1551   58.4200   62.0316 C   0  0  0  0  0  0  0  0  0  0  0  0
  -50.8143   57.4859   61.0171 C   0  0  0  0  0  0  0  0  0  0  0  0
  -49.4459   57.3409   58.7404 C   0  0  0  0  0  0  0  0  0  0  0  0
  -50.5113   58.0263   59.6183 C   0  0  0  0  0  0  0  0  0  0  0  0
  -48.5730   56.1903   59.2645 C   0  0  0  0  0  0  0  0  0  0  0  0
  -47.4155   56.0103   58.2715 C   0  0  0  0  0  0  0  0  0  0  0  0
  -46.3109   57.0803   58.0988 C   0  0  0  0  0  0  0  0  0  0  0  0
  -46.2914   58.3712   58.9406 C   0  0  0  0  0  0  0  0  0  0  0  0
  -46.4978   58.4471   61.4665 C   0  0  0  0  0  0  0  0  0  0  0  0
  -45.6219   58.0362   60.2804 C   0  0  0  0  0  0  0  0  0  0  0  0
  -49.6845   58.7915   66.1158 C   0  0  0  0  0  0  0  0  0  0  0  0
  -48.9193   60.0733   66.5216 C   0  0  0  0  0  0  0  0  0  0  0  0
  -46.2484   60.9507   64.1025 C   0  0  0  0  0  0  0  0  0  0  0  0
  -45.1240   60.3354   64.6685 C   0  0  0  0  0  0  0  0  0  0  0  0
  -47.4979   60.8517   64.7262 C   0  0  0  0  0  0  0  0  0  0  0  0
  -45.2749   59.6296   65.8619 C   0  0  0  0  0  0  0  0  0  0  0  0
  -46.5204   59.5418   66.4816 C   0  0  0  0  0  0  0  0  0  0  0  0
  -47.6477   60.1734   65.9409 C   0  0  0  0  0  0  0  0  0  0  0  0
  -44.2381   59.0046   66.4718 O   0  0  0  0  0  0  0  0  0  0  0  0
  -46.6189   58.8472   67.6520 O   0  0  0  0  0  0  0  0  0  0  0  0
  -43.3824   59.0368   66.0914 H   0  0  0  0  0  0  0  0  0  0  0  0
  -45.8633   58.4255   68.0115 H   0  0  0  0  0  0  0  0  0  0  0  0
 12 13  1  0  0  0
  9 10  2  0  0  0
  9  8  1  0  0  0
  6  7  2  0  0  0
  6  8  1  0  0  0
 10 11  1  0  0  0
  7  5  1  0  0  0
 16 17  2  0  0  0
 16 18  1  0  0  0
 17 19  1  0  0  0
 18 21  2  0  0  0
 13 11  1  0  0  0
  5  4  1  0  0  0
  4  3  1  0  0  0
  3  2  1  0  0  0
  2  1  1  0  0  0
  1 14  1  0  0  0
 14 15  1  0  0  0
 15 21  1  0  0  0
 19 20  2  0  0  0
 19 22  1  0  0  0
 20 21  1  0  0  0
 20 23  1  0  0  0
 22 24  1  0  0  0
 23 25  1  0  0  0
M  END
> <minimizedAffinity>
-8.33006

> <CNNscore>
0.3951300681

> <CNNaffinity>
6.2973699570

> <CNN_VS>
2.4882802963

> <CNNaffinity_variance>
0.1486336291

$$$$
/media/chris/experiments/cd1a-new-docking/inputs/ligands/5j1a_ligand.pdb


 25 25  0  0  0  0  0  0  0  0999 V2000
  -38.8095   60.3137   61.5413 C   0  0  0  0  0  0  0  0  0  0  0  0
  -38.5117   59.3956   60.3466 C   0  0  0  0  0  0  0  0  0  0  0  0
  -38.3711   57.9517   60.8088 C   0  0  0  0  0  0  0  0  0  0  0  0
  -39.7338   57.4301   61.2659 C   0  0  0  0  0  0  0  0  0  0  0  0
  -39.5794   56.5979   62.5387 C   0  0  0  0  0  0  0  0  0  0  0  0
  -38.4854   57.8501   64.6152 C   0  0  0  0  0  0  0  0  0  0  0  0
  -39.7122   57.5430   63.7343 C   0  0  0  0  0  0  0  0  0  0  0  0
  -37.1372   57.1414   64.4132 C   0  0  0  0  0  0  0  0  0  0  0  0
  -36.0724   58.2338   64.2367 C   0  0  0  0  0  0  0  0  0  0  0  0
  -35.0502   58.2009   63.0752 C   0  0  0  0  0  0  0  0  0  0  0  0
  -35.0670   57.0877   62.0093 C   0  0  0  0  0  0  0  0  0  0  0  0
  -32.6445   57.8103   62.2042 C   0  0  0  0  0  0  0  0  0  0  0  0
  -33.6078   56.7401   61.6848 C   0  0  0  0  0  0  0  0  0  0  0  0
  -37.5318   60.8750   62.2176 C   0  0  0  0  0  0  0  0  0  0  0  0
  -37.7704   61.3477   63.6712 C   0  0  0  0  0  0  0  0  0  0  0  0
  -34.2502   62.4037   64.1703 C   0  0  0  0  0  0  0  0  0  0  0  0
  -34.2047   62.6357   65.5514 C   0  0  0  0  0  0  0  0  0  0  0  0
  -35.4368   61.9744   63.5638 C   0  0  0  0  0  0  0  0  0  0  0  0
  -35.3617   62.4345   66.3038 C   0  0  0  0  0  0  0  0  0  0  0  0
  -36.5419   62.0147   65.6923 C   0  0  0  0  0  0  0  0  0  0  0  0
  -36.6088   61.8038   64.3091 C   0  0  0  0  0  0  0  0  0  0  0  0
  -35.3999   62.6341   67.6441 O   0  0  0  0  0  0  0  0  0  0  0  0
  -37.6510   61.8385   66.4672 O   0  0  0  0  0  0  0  0  0  0  0  0
  -34.6303   62.9165   68.0978 H   0  0  0  0  0  0  0  0  0  0  0  0
  -37.6035   61.9801   67.3923 H   0  0  0  0  0  0  0  0  0  0  0  0
 12 13  1  0  0  0
  9 10  2  0  0  0
  9  8  1  0  0  0
  6  7  2  0  0  0
  6  8  1  0  0  0
 10 11  1  0  0  0
  7  5  1  0  0  0
 16 17  2  0  0  0
 16 18  1  0  0  0
 17 19  1  0  0  0
 18 21  2  0  0  0
 13 11  1  0  0  0
  5  4  1  0  0  0
  4  3  1  0  0  0
  3  2  1  0  0  0
  2  1  1  0  0  0
  1 14  1  0  0  0
 14 15  1  0  0  0
 15 21  1  0  0  0
 19 20  2  0  0  0
 19 22  1  0  0  0
 20 21  1  0  0  0
 20 23  1  0  0  0
 22 24  1  0  0  0
 23 25  1  0  0  0
M  END
> <minimizedAffinity>
-7.29592

> <CNNscore>
0.3739059567

> <CNNaffinity>
6.0922112465

> <CNN_VS>
2.2779140472

> <CNNaffinity_variance>
0.1113009825

$$$$
/media/chris/experiments/cd1a-new-docking/inputs/ligands/5j1a_ligand.pdb


 25 25  0  0  0  0  0  0  0  0999 V2000
  -50.3329   57.5563   59.5937 C   0  0  0  0  0  0  0  0  0  0  0  0
  -48.9953   56.8257   59.4040 C   0  0  0  0  0  0  0  0  0  0  0  0
  -47.9606   57.7623   58.7955 C   0  0  0  0  0  0  0  0  0  0  0  0
  -46.6453   57.6341   59.5645 C   0  0  0  0  0  0  0  0  0  0  0  0
  -46.2217   58.9960   60.1143 C   0  0  0  0  0  0  0  0  0  0  0  0
  -47.4646   61.2635   60.7395 C   0  0  0  0  0  0  0  0  0  0  0  0
  -47.3882   59.9650   59.9126 C   0  0  0  0  0  0  0  0  0  0  0  0
  -46.4654   61.5752   61.8642 C   0  0  0  0  0  0  0  0  0  0  0  0
  -47.0963   61.0921   63.1783 C   0  0  0  0  0  0  0  0  0  0  0  0
  -46.2384   60.5612   64.3519 C   0  0  0  0  0  0  0  0  0  0  0  0
  -44.6994   60.5215   64.2804 C   0  0  0  0  0  0  0  0  0  0  0  0
  -45.3525   59.0868   66.2662 C   0  0  0  0  0  0  0  0  0  0  0  0
  -44.2012   59.7642   65.5188 C   0  0  0  0  0  0  0  0  0  0  0  0
  -50.7892   57.6270   61.0742 C   0  0  0  0  0  0  0  0  0  0  0  0
  -49.6109   57.7535   62.0686 C   0  0  0  0  0  0  0  0  0  0  0  0
  -51.1778   60.3441   64.2108 C   0  0  0  0  0  0  0  0  0  0  0  0
  -50.5119   60.1612   65.4300 C   0  0  0  0  0  0  0  0  0  0  0  0
  -50.8657   59.5416   63.1070 C   0  0  0  0  0  0  0  0  0  0  0  0
  -49.5397   59.1653   65.5205 C   0  0  0  0  0  0  0  0  0  0  0  0
  -49.2395   58.3646   64.4197 C   0  0  0  0  0  0  0  0  0  0  0  0
  -49.9153   58.5190   63.2025 C   0  0  0  0  0  0  0  0  0  0  0  0
  -48.8491   58.9266   66.6622 O   0  0  0  0  0  0  0  0  0  0  0  0
  -48.2866   57.3977   64.5571 O   0  0  0  0  0  0  0  0  0  0  0  0
  -49.0173   59.4403   67.4276 H   0  0  0  0  0  0  0  0  0  0  0  0
  -47.8360   57.2966   65.3724 H   0  0  0  0  0  0  0  0  0  0  0  0
 12 13  1  0  0  0
  9 10  2  0  0  0
  9  8  1  0  0  0
  6  7  2  0  0  0
  6  8  1  0  0  0
 10 11  1  0  0  0
  7  5  1  0  0  0
 16 17  2  0  0  0
 16 18  1  0  0  0
 17 19  1  0  0  0
 18 21  2  0  0  0
 13 11  1  0  0  0
  5  4  1  0  0  0
  4  3  1  0  0  0
  3  2  1  0  0  0
  2  1  1  0  0  0
  1 14  1  0  0  0
 14 15  1  0  0  0
 15 21  1  0  0  0
 19 20  2  0  0  0
 19 22  1  0  0  0
 20 21  1  0  0  0
 20 23  1  0  0  0
 22 24  1  0  0  0
 23 25  1  0  0  0
M  END
> <minimizedAffinity>
-7.48188

> <CNNscore>
0.3089187741

> <CNNaffinity>
6.3113832474

> <CNN_VS>
1.9497047663

> <CNNaffinity_variance>
0.2314723432

$$$$
/media/chris/experiments/cd1a-new-docking/inputs/ligands/5j1a_ligand.pdb


 25 25  0  0  0  0  0  0  0  0999 V2000
  -45.6826   61.1723   62.5403 C   0  0  0  0  0  0  0  0  0  0  0  0
  -45.9834   59.8944   61.7431 C   0  0  0  0  0  0  0  0  0  0  0  0
  -47.4857   59.6605   61.6623 C   0  0  0  0  0  0  0  0  0  0  0  0
  -48.0962   60.6276   60.6474 C   0  0  0  0  0  0  0  0  0  0  0  0
  -49.6197   60.5045   60.6530 C   0  0  0  0  0  0  0  0  0  0  0  0
  -50.5247   58.3101   61.8540 C   0  0  0  0  0  0  0  0  0  0  0  0
  -50.0245   59.7659   61.9301 C   0  0  0  0  0  0  0  0  0  0  0  0
  -50.7531   57.5942   60.5139 C   0  0  0  0  0  0  0  0  0  0  0  0
  -49.5770   56.6282   60.3093 C   0  0  0  0  0  0  0  0  0  0  0  0
  -48.5510   56.8176   59.1663 C   0  0  0  0  0  0  0  0  0  0  0  0
  -48.6322   58.0080   58.1906 C   0  0  0  0  0  0  0  0  0  0  0  0
  -46.1570   57.7754   58.6884 C   0  0  0  0  0  0  0  0  0  0  0  0
  -47.2060   58.3038   57.7069 C   0  0  0  0  0  0  0  0  0  0  0  0
  -46.6426   61.3883   63.7389 C   0  0  0  0  0  0  0  0  0  0  0  0
  -46.3263   60.4721   64.9446 C   0  0  0  0  0  0  0  0  0  0  0  0
  -49.7243   59.2093   65.7285 C   0  0  0  0  0  0  0  0  0  0  0  0
  -49.4848   57.8509   65.9747 C   0  0  0  0  0  0  0  0  0  0  0  0
  -48.6679   60.0643   65.3922 C   0  0  0  0  0  0  0  0  0  0  0  0
  -48.1791   57.3710   65.8740 C   0  0  0  0  0  0  0  0  0  0  0  0
  -47.1332   58.2262   65.5309 C   0  0  0  0  0  0  0  0  0  0  0  0
  -47.3618   59.5808   65.2569 C   0  0  0  0  0  0  0  0  0  0  0  0
  -47.8638   56.0719   66.0988 O   0  0  0  0  0  0  0  0  0  0  0  0
  -45.8734   57.7106   65.4367 O   0  0  0  0  0  0  0  0  0  0  0  0
  -48.5345   55.4606   66.3320 H   0  0  0  0  0  0  0  0  0  0  0  0
  -45.7232   56.8042   65.6206 H   0  0  0  0  0  0  0  0  0  0  0  0
 12 13  1  0  0  0
  9 10  2  0  0  0
  9  8  1  0  0  0
  6  7  2  0  0  0
  6  8  1  0  0  0
 10 11  1  0  0  0
  7  5  1  0  0  0
 16 17  2  0  0  0
 16 18  1  0  0  0
 17 19  1  0  0  0
 18 21  2  0  0  0
 13 11  1  0  0  0
  5  4  1  0  0  0
  4  3  1  0  0  0
  3  2  1  0  0  0
  2  1  1  0  0  0
  1 14  1  0  0  0
 14 15  1  0  0  0
 15 21  1  0  0  0
 19 20  2  0  0  0
 19 22  1  0  0  0
 20 21  1  0  0  0
 20 23  1  0  0  0
 22 24  1  0  0  0
 23 25  1  0  0  0
M  END
> <minimizedAffinity>
-7.49686

> <CNNscore>
0.2963952124

> <CNNaffinity>
6.2839231491

> <CNN_VS>
1.8625247478

> <CNNaffinity_variance>
0.2328440845

$$$$
/media/chris/experiments/cd1a-new-docking/inputs/ligands/5j1a_ligand.pdb


 25 25  0  0  0  0  0  0  0  0999 V2000
  -50.0796   58.9102   62.0904 C   0  0  0  0  0  0  0  0  0  0  0  0
  -51.1691   59.8180   62.6802 C   0  0  0  0  0  0  0  0  0  0  0  0
  -50.9580   59.9966   64.1774 C   0  0  0  0  0  0  0  0  0  0  0  0
  -50.1316   58.8285   64.7165 C   0  0  0  0  0  0  0  0  0  0  0  0
  -49.2027   59.3103   65.8307 C   0  0  0  0  0  0  0  0  0  0  0  0
  -47.2210   60.6321   64.6463 C   0  0  0  0  0  0  0  0  0  0  0  0
  -48.5770   60.6313   65.3791 C   0  0  0  0  0  0  0  0  0  0  0  0
  -46.3970   59.3500   64.4522 C   0  0  0  0  0  0  0  0  0  0  0  0
  -46.8014   58.7516   63.0970 C   0  0  0  0  0  0  0  0  0  0  0  0
  -46.1868   59.2483   61.7664 C   0  0  0  0  0  0  0  0  0  0  0  0
  -45.1071   60.3477   61.7305 C   0  0  0  0  0  0  0  0  0  0  0  0
  -47.2590   61.4505   60.9679 C   0  0  0  0  0  0  0  0  0  0  0  0
  -45.8119   61.6738   61.4139 C   0  0  0  0  0  0  0  0  0  0  0  0
  -50.6402   57.8022   61.1614 C   0  0  0  0  0  0  0  0  0  0  0  0
  -50.4697   58.1248   59.6580 C   0  0  0  0  0  0  0  0  0  0  0  0
  -47.1567   58.9575   58.2134 C   0  0  0  0  0  0  0  0  0  0  0  0
  -46.5308   57.7047   58.1693 C   0  0  0  0  0  0  0  0  0  0  0  0
  -48.4617   59.0793   58.7056 C   0  0  0  0  0  0  0  0  0  0  0  0
  -47.2306   56.5886   58.6274 C   0  0  0  0  0  0  0  0  0  0  0  0
  -48.5267   56.7183   59.1236 C   0  0  0  0  0  0  0  0  0  0  0  0
  -49.1552   57.9680   59.1976 C   0  0  0  0  0  0  0  0  0  0  0  0
  -46.6973   55.3424   58.6161 O   0  0  0  0  0  0  0  0  0  0  0  0
  -49.1698   55.5999   59.5681 O   0  0  0  0  0  0  0  0  0  0  0  0
  -45.8288   55.2074   58.2914 H   0  0  0  0  0  0  0  0  0  0  0  0
  -48.7472   54.7652   59.5173 H   0  0  0  0  0  0  0  0  0  0  0  0
 12 13  1  0  0  0
  9 10  2  0  0  0
  9  8  1  0  0  0
  6  7  2  0  0  0
  6  8  1  0  0  0
 10 11  1  0  0  0
  7  5  1  0  0  0
 16 17  2  0  0  0
 16 18  1  0  0  0
 17 19  1  0  0  0
 18 21  2  0  0  0
 13 11  1  0  0  0
  5  4  1  0  0  0
  4  3  1  0  0  0
  3  2  1  0  0  0
  2  1  1  0  0  0
  1 14  1  0  0  0
 14 15  1  0  0  0
 15 21  1  0  0  0
 19 20  2  0  0  0
 19 22  1  0  0  0
 20 21  1  0  0  0
 20 23  1  0  0  0
 22 24  1  0  0  0
 23 25  1  0  0  0
M  END
> <minimizedAffinity>
-7.65314

> <CNNscore>
0.2921404839

> <CNNaffinity>
6.5046300888

> <CNN_VS>
1.9002658129

> <CNNaffinity_variance>
0.2060413659

$$$$
