/media/chris/experiments/cd1a-new-docking/inputs/ligands/5j1a_ligand.pdb


 25 25  0  0  0  0  0  0  0  0999 V2000
  -49.6556   59.6382   61.9342 C   0  0  0  0  0  0  0  0  0  0  0  0
  -50.9853   59.5473   62.6975 C   0  0  0  0  0  0  0  0  0  0  0  0
  -50.8275   60.1023   64.1065 C   0  0  0  0  0  0  0  0  0  0  0  0
  -50.5134   58.9578   65.0706 C   0  0  0  0  0  0  0  0  0  0  0  0
  -49.2116   59.2422   65.8195 C   0  0  0  0  0  0  0  0  0  0  0  0
  -47.4354   60.8306   64.6370 C   0  0  0  0  0  0  0  0  0  0  0  0
  -48.7445   60.6455   65.4291 C   0  0  0  0  0  0  0  0  0  0  0  0
  -46.4995   59.6539   64.3204 C   0  0  0  0  0  0  0  0  0  0  0  0
  -45.1990   59.8851   65.1039 C   0  0  0  0  0  0  0  0  0  0  0  0
  -44.9802   59.2983   66.5190 C   0  0  0  0  0  0  0  0  0  0  0  0
  -46.0423   58.4184   67.2068 C   0  0  0  0  0  0  0  0  0  0  0  0
  -46.9509   56.3115   66.1276 C   0  0  0  0  0  0  0  0  0  0  0  0
  -45.7514   56.9613   66.8217 C   0  0  0  0  0  0  0  0  0  0  0  0
  -49.7258   59.0394   60.5054 C   0  0  0  0  0  0  0  0  0  0  0  0
  -48.9292   57.7213   60.3584 C   0  0  0  0  0  0  0  0  0  0  0  0
  -46.7752   58.8625   57.5632 C   0  0  0  0  0  0  0  0  0  0  0  0
  -46.5673   57.6760   56.8475 C   0  0  0  0  0  0  0  0  0  0  0  0
  -47.5621   58.8615   58.7211 C   0  0  0  0  0  0  0  0  0  0  0  0
  -47.1549   56.5000   57.3132 C   0  0  0  0  0  0  0  0  0  0  0  0
  -47.9308   56.5046   58.4712 C   0  0  0  0  0  0  0  0  0  0  0  0
  -48.1257   57.6781   59.2109 C   0  0  0  0  0  0  0  0  0  0  0  0
  -47.0046   55.3121   56.6776 O   0  0  0  0  0  0  0  0  0  0  0  0
  -48.4794   55.3288   58.8933 O   0  0  0  0  0  0  0  0  0  0  0  0
  -46.4914   55.2611   55.8952 H   0  0  0  0  0  0  0  0  0  0  0  0
  -48.3475   54.5452   58.3966 H   0  0  0  0  0  0  0  0  0  0  0  0
 12 13  1  0  0  0
  9 10  2  0  0  0
  9  8  1  0  0  0
  6  7  2  0  0  0
  6  8  1  0  0  0
 10 11  1  0  0  0
  7  5  1  0  0  0
 16 17  2  0  0  0
 16 18  1  0  0  0
 17 19  1  0  0  0
 18 21  2  0  0  0
 13 11  1  0  0  0
  5  4  1  0  0  0
  4  3  1  0  0  0
  3  2  1  0  0  0
  2  1  1  0  0  0
  1 14  1  0  0  0
 14 15  1  0  0  0
 15 21  1  0  0  0
 19 20  2  0  0  0
 19 22  1  0  0  0
 20 21  1  0  0  0
 20 23  1  0  0  0
 22 24  1  0  0  0
 23 25  1  0  0  0
M  END
> <minimizedAffinity>
-7.94070

> <CNNscore>
0.5806997418

> <CNNaffinity>
6.8395605087

> <CNN_VS>
3.9717309475

> <CNNaffinity_variance>
0.1720254719

$$$$
/media/chris/experiments/cd1a-new-docking/inputs/ligands/5j1a_ligand.pdb


 25 25  0  0  0  0  0  0  0  0999 V2000
  -49.1311   60.5533   61.3581 C   0  0  0  0  0  0  0  0  0  0  0  0
  -50.0483   59.4491   61.9044 C   0  0  0  0  0  0  0  0  0  0  0  0
  -51.1646   60.0539   62.7448 C   0  0  0  0  0  0  0  0  0  0  0  0
  -50.9599   59.6722   64.2112 C   0  0  0  0  0  0  0  0  0  0  0  0
  -49.7634   58.7308   64.3484 C   0  0  0  0  0  0  0  0  0  0  0  0
  -48.6140   59.3375   66.6693 C   0  0  0  0  0  0  0  0  0  0  0  0
  -49.5591   58.4482   65.8378 C   0  0  0  0  0  0  0  0  0  0  0  0
  -47.7593   60.4423   66.0296 C   0  0  0  0  0  0  0  0  0  0  0  0
  -46.3077   59.9411   66.0136 C   0  0  0  0  0  0  0  0  0  0  0  0
  -45.4500   59.9566   64.7256 C   0  0  0  0  0  0  0  0  0  0  0  0
  -45.9940   60.5099   63.3939 C   0  0  0  0  0  0  0  0  0  0  0  0
  -46.0693   62.6315   62.0076 C   0  0  0  0  0  0  0  0  0  0  0  0
  -45.5875   61.9875   63.3100 C   0  0  0  0  0  0  0  0  0  0  0  0
  -48.1372   60.0482   60.2801 C   0  0  0  0  0  0  0  0  0  0  0  0
  -47.9602   58.5113   60.2881 C   0  0  0  0  0  0  0  0  0  0  0  0
  -45.9440   57.4826   57.3501 C   0  0  0  0  0  0  0  0  0  0  0  0
  -46.9250   57.0013   56.4730 C   0  0  0  0  0  0  0  0  0  0  0  0
  -46.3031   57.9822   58.6077 C   0  0  0  0  0  0  0  0  0  0  0  0
  -48.2589   57.0271   56.8792 C   0  0  0  0  0  0  0  0  0  0  0  0
  -48.6088   57.5185   58.1357 C   0  0  0  0  0  0  0  0  0  0  0  0
  -47.6363   57.9788   59.0329 C   0  0  0  0  0  0  0  0  0  0  0  0
  -49.2671   56.5828   56.0893 O   0  0  0  0  0  0  0  0  0  0  0  0
  -49.9256   57.5170   58.4932 O   0  0  0  0  0  0  0  0  0  0  0  0
  -49.0792   56.2437   55.2363 H   0  0  0  0  0  0  0  0  0  0  0  0
  -50.5741   57.2086   57.8912 H   0  0  0  0  0  0  0  0  0  0  0  0
 12 13  1  0  0  0
  9 10  2  0  0  0
  9  8  1  0  0  0
  6  7  2  0  0  0
  6  8  1  0  0  0
 10 11  1  0  0  0
  7  5  1  0  0  0
 16 17  2  0  0  0
 16 18  1  0  0  0
 17 19  1  0  0  0
 18 21  2  0  0  0
 13 11  1  0  0  0
  5  4  1  0  0  0
  4  3  1  0  0  0
  3  2  1  0  0  0
  2  1  1  0  0  0
  1 14  1  0  0  0
 14 15  1  0  0  0
 15 21  1  0  0  0
 19 20  2  0  0  0
 19 22  1  0  0  0
 20 21  1  0  0  0
 20 23  1  0  0  0
 22 24  1  0  0  0
 23 25  1  0  0  0
M  END
> <minimizedAffinity>
-8.11777

> <CNNscore>
0.4494399130

> <CNNaffinity>
6.6207833290

> <CNN_VS>
2.9756443501

> <CNNaffinity_variance>
0.1839710772

$$$$
/media/chris/experiments/cd1a-new-docking/inputs/ligands/5j1a_ligand.pdb


 25 25  0  0  0  0  0  0  0  0999 V2000
  -46.8430   61.3174   60.8073 C   0  0  0  0  0  0  0  0  0  0  0  0
  -46.8042   60.4179   62.0517 C   0  0  0  0  0  0  0  0  0  0  0  0
  -45.7155   60.8832   63.0090 C   0  0  0  0  0  0  0  0  0  0  0  0
  -46.1933   60.6980   64.4497 C   0  0  0  0  0  0  0  0  0  0  0  0
  -45.4054   59.5761   65.1258 C   0  0  0  0  0  0  0  0  0  0  0  0
  -47.1997   58.5577   66.8051 C   0  0  0  0  0  0  0  0  0  0  0  0
  -45.9459   59.4165   66.5479 C   0  0  0  0  0  0  0  0  0  0  0  0
  -48.0161   57.9412   65.6587 C   0  0  0  0  0  0  0  0  0  0  0  0
  -49.4761   57.8689   66.1294 C   0  0  0  0  0  0  0  0  0  0  0  0
  -50.5140   58.9516   65.7483 C   0  0  0  0  0  0  0  0  0  0  0  0
  -50.1482   60.1454   64.8446 C   0  0  0  0  0  0  0  0  0  0  0  0
  -50.7229   59.3697   62.5001 C   0  0  0  0  0  0  0  0  0  0  0  0
  -51.1778   60.1933   63.7074 C   0  0  0  0  0  0  0  0  0  0  0  0
  -47.7010   60.7339   59.6547 C   0  0  0  0  0  0  0  0  0  0  0  0
  -48.0463   59.2385   59.8501 C   0  0  0  0  0  0  0  0  0  0  0  0
  -45.9987   57.5553   57.2560 C   0  0  0  0  0  0  0  0  0  0  0  0
  -46.9737   56.9115   56.4823 C   0  0  0  0  0  0  0  0  0  0  0  0
  -46.3702   58.3244   58.3652 C   0  0  0  0  0  0  0  0  0  0  0  0
  -48.3142   57.0499   56.8416 C   0  0  0  0  0  0  0  0  0  0  0  0
  -48.6764   57.8106   57.9520 C   0  0  0  0  0  0  0  0  0  0  0  0
  -47.7109   58.4383   58.7495 C   0  0  0  0  0  0  0  0  0  0  0  0
  -49.3171   56.4618   56.1445 O   0  0  0  0  0  0  0  0  0  0  0  0
  -49.9995   57.9113   58.2701 O   0  0  0  0  0  0  0  0  0  0  0  0
  -49.1208   55.9408   55.3907 H   0  0  0  0  0  0  0  0  0  0  0  0
  -50.6433   57.4905   57.7349 H   0  0  0  0  0  0  0  0  0  0  0  0
 12 13  1  0  0  0
  9 10  2  0  0  0
  9  8  1  0  0  0
  6  7  2  0  0  0
  6  8  1  0  0  0
 10 11  1  0  0  0
  7  5  1  0  0  0
 16 17  2  0  0  0
 16 18  1  0  0  0
 17 19  1  0  0  0
 18 21  2  0  0  0
 13 11  1  0  0  0
  5  4  1  0  0  0
  4  3  1  0  0  0
  3  2  1  0  0  0
  2  1  1  0  0  0
  1 14  1  0  0  0
 14 15  1  0  0  0
 15 21  1  0  0  0
 19 20  2  0  0  0
 19 22  1  0  0  0
 20 21  1  0  0  0
 20 23  1  0  0  0
 22 24  1  0  0  0
 23 25  1  0  0  0
M  END
> <minimizedAffinity>
-8.12939

> <CNNscore>
0.4472099245

> <CNNaffinity>
6.6044797897

> <CNN_VS>
2.9535889626

> <CNNaffinity_variance>
0.2702306211

$$$$
/media/chris/experiments/cd1a-new-docking/inputs/ligands/5j1a_ligand.pdb


 25 25  0  0  0  0  0  0  0  0999 V2000
  -45.9075   57.7316   58.4476 C   0  0  0  0  0  0  0  0  0  0  0  0
  -47.0259   57.1654   57.5602 C   0  0  0  0  0  0  0  0  0  0  0  0
  -48.1949   56.6954   58.4149 C   0  0  0  0  0  0  0  0  0  0  0  0
  -49.4861   57.3375   57.9064 C   0  0  0  0  0  0  0  0  0  0  0  0
  -50.1610   58.1243   59.0297 C   0  0  0  0  0  0  0  0  0  0  0  0
  -49.8958   58.2442   61.6738 C   0  0  0  0  0  0  0  0  0  0  0  0
  -49.7971   57.4527   60.3550 C   0  0  0  0  0  0  0  0  0  0  0  0
  -50.2350   59.7425   61.7034 C   0  0  0  0  0  0  0  0  0  0  0  0
  -51.1757   59.9713   62.8955 C   0  0  0  0  0  0  0  0  0  0  0  0
  -50.6597   59.9889   64.3543 C   0  0  0  0  0  0  0  0  0  0  0  0
  -49.1657   59.8133   64.6898 C   0  0  0  0  0  0  0  0  0  0  0  0
  -50.1960   57.9897   66.1188 C   0  0  0  0  0  0  0  0  0  0  0  0
  -49.0794   59.0308   66.0074 C   0  0  0  0  0  0  0  0  0  0  0  0
  -46.4350   58.4473   59.7183 C   0  0  0  0  0  0  0  0  0  0  0  0
  -45.4479   58.3814   60.9077 C   0  0  0  0  0  0  0  0  0  0  0  0
  -46.3474   61.6529   62.4056 C   0  0  0  0  0  0  0  0  0  0  0  0
  -46.0482   61.4498   63.7594 C   0  0  0  0  0  0  0  0  0  0  0  0
  -46.1399   60.6287   61.4740 C   0  0  0  0  0  0  0  0  0  0  0  0
  -45.5456   60.2109   64.1567 C   0  0  0  0  0  0  0  0  0  0  0  0
  -45.3488   59.1930   63.2251 C   0  0  0  0  0  0  0  0  0  0  0  0
  -45.6679   59.3732   61.8731 C   0  0  0  0  0  0  0  0  0  0  0  0
  -45.2290   59.9355   65.4457 O   0  0  0  0  0  0  0  0  0  0  0  0
  -44.8624   57.9950   63.6611 O   0  0  0  0  0  0  0  0  0  0  0  0
  -45.3448   60.5896   66.1066 H   0  0  0  0  0  0  0  0  0  0  0  0
  -44.6498   57.8770   64.5660 H   0  0  0  0  0  0  0  0  0  0  0  0
 12 13  1  0  0  0
  9 10  2  0  0  0
  9  8  1  0  0  0
  6  7  2  0  0  0
  6  8  1  0  0  0
 10 11  1  0  0  0
  7  5  1  0  0  0
 16 17  2  0  0  0
 16 18  1  0  0  0
 17 19  1  0  0  0
 18 21  2  0  0  0
 13 11  1  0  0  0
  5  4  1  0  0  0
  4  3  1  0  0  0
  3  2  1  0  0  0
  2  1  1  0  0  0
  1 14  1  0  0  0
 14 15  1  0  0  0
 15 21  1  0  0  0
 19 20  2  0  0  0
 19 22  1  0  0  0
 20 21  1  0  0  0
 20 23  1  0  0  0
 22 24  1  0  0  0
 23 25  1  0  0  0
M  END
> <minimizedAffinity>
-7.54716

> <CNNscore>
0.3769896030

> <CNNaffinity>
6.3662981987

> <CNN_VS>
2.4000282288

> <CNNaffinity_variance>
0.1828513294

$$$$
/media/chris/experiments/cd1a-new-docking/inputs/ligands/5j1a_ligand.pdb


 25 25  0  0  0  0  0  0  0  0999 V2000
  -48.8237   60.2296   61.8161 C   0  0  0  0  0  0  0  0  0  0  0  0
  -50.2887   59.9875   62.2087 C   0  0  0  0  0  0  0  0  0  0  0  0
  -50.5101   58.5214   62.5546 C   0  0  0  0  0  0  0  0  0  0  0  0
  -49.5282   58.1044   63.6500 C   0  0  0  0  0  0  0  0  0  0  0  0
  -50.0178   58.5968   65.0117 C   0  0  0  0  0  0  0  0  0  0  0  0
  -48.0325   58.9750   66.7413 C   0  0  0  0  0  0  0  0  0  0  0  0
  -49.0681   58.0466   66.0771 C   0  0  0  0  0  0  0  0  0  0  0  0
  -47.8277   60.4279   66.2856 C   0  0  0  0  0  0  0  0  0  0  0  0
  -46.9431   60.3894   65.0308 C   0  0  0  0  0  0  0  0  0  0  0  0
  -45.4665   59.9292   65.0836 C   0  0  0  0  0  0  0  0  0  0  0  0
  -44.8114   59.4494   66.3936 C   0  0  0  0  0  0  0  0  0  0  0  0
  -45.0592   57.0250   65.6937 C   0  0  0  0  0  0  0  0  0  0  0  0
  -44.0811   58.1346   66.0875 C   0  0  0  0  0  0  0  0  0  0  0  0
  -48.6415   60.5963   60.3203 C   0  0  0  0  0  0  0  0  0  0  0  0
  -49.3190   59.5899   59.3603 C   0  0  0  0  0  0  0  0  0  0  0  0
  -46.4161   58.3402   57.4195 C   0  0  0  0  0  0  0  0  0  0  0  0
  -46.6173   56.9538   57.4474 C   0  0  0  0  0  0  0  0  0  0  0  0
  -47.3210   59.1993   58.0544 C   0  0  0  0  0  0  0  0  0  0  0  0
  -47.7304   56.4510   58.1207 C   0  0  0  0  0  0  0  0  0  0  0  0
  -48.6232   57.3114   58.7575 C   0  0  0  0  0  0  0  0  0  0  0  0
  -48.4205   58.6975   58.7599 C   0  0  0  0  0  0  0  0  0  0  0  0
  -47.9975   55.1239   58.1918 O   0  0  0  0  0  0  0  0  0  0  0  0
  -49.6938   56.7738   59.4105 O   0  0  0  0  0  0  0  0  0  0  0  0
  -47.4249   54.5080   57.7786 H   0  0  0  0  0  0  0  0  0  0  0  0
  -49.8271   55.8464   59.4073 H   0  0  0  0  0  0  0  0  0  0  0  0
 12 13  1  0  0  0
  9 10  2  0  0  0
  9  8  1  0  0  0
  6  7  2  0  0  0
  6  8  1  0  0  0
 10 11  1  0  0  0
  7  5  1  0  0  0
 16 17  2  0  0  0
 16 18  1  0  0  0
 17 19  1  0  0  0
 18 21  2  0  0  0
 13 11  1  0  0  0
  5  4  1  0  0  0
  4  3  1  0  0  0
  3  2  1  0  0  0
  2  1  1  0  0  0
  1 14  1  0  0  0
 14 15  1  0  0  0
 15 21  1  0  0  0
 19 20  2  0  0  0
 19 22  1  0  0  0
 20 21  1  0  0  0
 20 23  1  0  0  0
 22 24  1  0  0  0
 23 25  1  0  0  0
M  END
> <minimizedAffinity>
-7.98990

> <CNNscore>
0.3728075922

> <CNNaffinity>
6.5242757797

> <CNN_VS>
2.4322996140

> <CNNaffinity_variance>
0.2006294280

$$$$
/media/chris/experiments/cd1a-new-docking/inputs/ligands/5j1a_ligand.pdb


 25 25  0  0  0  0  0  0  0  0999 V2000
  -48.0448   58.6938   64.4330 C   0  0  0  0  0  0  0  0  0  0  0  0
  -49.5403   58.3708   64.2982 C   0  0  0  0  0  0  0  0  0  0  0  0
  -50.3267   59.6299   63.9598 C   0  0  0  0  0  0  0  0  0  0  0  0
  -51.1126   59.4056   62.6675 C   0  0  0  0  0  0  0  0  0  0  0  0
  -50.1532   59.1526   61.5047 C   0  0  0  0  0  0  0  0  0  0  0  0
  -48.1968   60.6487   60.4995 C   0  0  0  0  0  0  0  0  0  0  0  0
  -49.6420   60.5092   61.0166 C   0  0  0  0  0  0  0  0  0  0  0  0
  -47.1904   59.4896   60.5664 C   0  0  0  0  0  0  0  0  0  0  0  0
  -46.5862   59.3319   59.1633 C   0  0  0  0  0  0  0  0  0  0  0  0
  -46.4104   57.9455   58.4986 C   0  0  0  0  0  0  0  0  0  0  0  0
  -46.8654   56.6475   59.1940 C   0  0  0  0  0  0  0  0  0  0  0  0
  -49.1944   56.0126   59.9696 C   0  0  0  0  0  0  0  0  0  0  0  0
  -48.3173   56.3844   58.7715 C   0  0  0  0  0  0  0  0  0  0  0  0
  -47.7557   60.2094   64.5888 C   0  0  0  0  0  0  0  0  0  0  0  0
  -46.2901   60.5120   64.9813 C   0  0  0  0  0  0  0  0  0  0  0  0
  -45.4238   62.6223   62.0571 C   0  0  0  0  0  0  0  0  0  0  0  0
  -44.1117   62.2169   61.7789 C   0  0  0  0  0  0  0  0  0  0  0  0
  -46.1324   62.0461   63.1181 C   0  0  0  0  0  0  0  0  0  0  0  0
  -43.5291   61.2350   62.5799 C   0  0  0  0  0  0  0  0  0  0  0  0
  -44.2374   60.6710   63.6396 C   0  0  0  0  0  0  0  0  0  0  0  0
  -45.5403   61.0851   63.9453 C   0  0  0  0  0  0  0  0  0  0  0  0
  -42.2663   60.7863   62.3754 O   0  0  0  0  0  0  0  0  0  0  0  0
  -43.6240   59.7193   64.4010 O   0  0  0  0  0  0  0  0  0  0  0  0
  -41.7524   61.1367   61.6747 H   0  0  0  0  0  0  0  0  0  0  0  0
  -42.7525   59.4441   64.1944 H   0  0  0  0  0  0  0  0  0  0  0  0
 12 13  1  0  0  0
  9 10  2  0  0  0
  9  8  1  0  0  0
  6  7  2  0  0  0
  6  8  1  0  0  0
 10 11  1  0  0  0
  7  5  1  0  0  0
 16 17  2  0  0  0
 16 18  1  0  0  0
 17 19  1  0  0  0
 18 21  2  0  0  0
 13 11  1  0  0  0
  5  4  1  0  0  0
  4  3  1  0  0  0
  3  2  1  0  0  0
  2  1  1  0  0  0
  1 14  1  0  0  0
 14 15  1  0  0  0
 15 21  1  0  0  0
 19 20  2  0  0  0
 19 22  1  0  0  0
 20 21  1  0  0  0
 20 23  1  0  0  0
 22 24  1  0  0  0
 23 25  1  0  0  0
M  END
> <minimizedAffinity>
-7.28608

> <CNNscore>
0.3717425466

> <CNNaffinity>
6.2008047104

> <CNN_VS>
2.3051028252

> <CNNaffinity_variance>
0.1531485021

$$$$
/media/chris/experiments/cd1a-new-docking/inputs/ligands/5j1a_ligand.pdb


 25 25  0  0  0  0  0  0  0  0999 V2000
  -47.7745   59.0868   65.5034 C   0  0  0  0  0  0  0  0  0  0  0  0
  -48.6071   58.1016   64.6697 C   0  0  0  0  0  0  0  0  0  0  0  0
  -48.3383   58.3038   63.1847 C   0  0  0  0  0  0  0  0  0  0  0  0
  -49.6359   58.1009   62.4017 C   0  0  0  0  0  0  0  0  0  0  0  0
  -49.3370   57.4729   61.0405 C   0  0  0  0  0  0  0  0  0  0  0  0
  -49.8640   57.9942   58.4858 C   0  0  0  0  0  0  0  0  0  0  0  0
  -50.1196   58.2539   59.9834 C   0  0  0  0  0  0  0  0  0  0  0  0
  -48.7510   57.0536   57.9986 C   0  0  0  0  0  0  0  0  0  0  0  0
  -47.7094   57.9198   57.2751 C   0  0  0  0  0  0  0  0  0  0  0  0
  -46.2973   58.1622   57.8599 C   0  0  0  0  0  0  0  0  0  0  0  0
  -45.8451   57.5179   59.1850 C   0  0  0  0  0  0  0  0  0  0  0  0
  -45.0078   58.2675   61.4578 C   0  0  0  0  0  0  0  0  0  0  0  0
  -45.9132   58.6016   60.2697 C   0  0  0  0  0  0  0  0  0  0  0  0
  -47.0994   60.1936   64.6523 C   0  0  0  0  0  0  0  0  0  0  0  0
  -45.5979   60.3789   64.9757 C   0  0  0  0  0  0  0  0  0  0  0  0
  -44.8673   62.4066   61.9574 C   0  0  0  0  0  0  0  0  0  0  0  0
  -43.4922   62.1977   61.7874 C   0  0  0  0  0  0  0  0  0  0  0  0
  -45.5502   61.7948   63.0154 C   0  0  0  0  0  0  0  0  0  0  0  0
  -42.8219   61.3748   62.6921 C   0  0  0  0  0  0  0  0  0  0  0  0
  -43.5064   60.7751   63.7479 C   0  0  0  0  0  0  0  0  0  0  0  0
  -44.8756   60.9957   63.9452 C   0  0  0  0  0  0  0  0  0  0  0  0
  -41.4939   61.1202   62.5957 O   0  0  0  0  0  0  0  0  0  0  0  0
  -42.8076   59.9842   64.6127 O   0  0  0  0  0  0  0  0  0  0  0  0
  -40.9929   61.5018   61.9019 H   0  0  0  0  0  0  0  0  0  0  0  0
  -41.8918   59.8382   64.4784 H   0  0  0  0  0  0  0  0  0  0  0  0
 12 13  1  0  0  0
  9 10  2  0  0  0
  9  8  1  0  0  0
  6  7  2  0  0  0
  6  8  1  0  0  0
 10 11  1  0  0  0
  7  5  1  0  0  0
 16 17  2  0  0  0
 16 18  1  0  0  0
 17 19  1  0  0  0
 18 21  2  0  0  0
 13 11  1  0  0  0
  5  4  1  0  0  0
  4  3  1  0  0  0
  3  2  1  0  0  0
  2  1  1  0  0  0
  1 14  1  0  0  0
 14 15  1  0  0  0
 15 21  1  0  0  0
 19 20  2  0  0  0
 19 22  1  0  0  0
 20 21  1  0  0  0
 20 23  1  0  0  0
 22 24  1  0  0  0
 23 25  1  0  0  0
M  END
> <minimizedAffinity>
-7.52595

> <CNNscore>
0.3660075665

> <CNNaffinity>
6.0776309967

> <CNN_VS>
2.2244589329

> <CNNaffinity_variance>
0.2257323712

$$$$
/media/chris/experiments/cd1a-new-docking/inputs/ligands/5j1a_ligand.pdb


 25 25  0  0  0  0  0  0  0  0999 V2000
  -48.6922   58.1213   63.4765 C   0  0  0  0  0  0  0  0  0  0  0  0
  -49.8738   57.9558   62.5092 C   0  0  0  0  0  0  0  0  0  0  0  0
  -49.4044   57.3399   61.1984 C   0  0  0  0  0  0  0  0  0  0  0  0
  -50.4376   57.6207   60.1068 C   0  0  0  0  0  0  0  0  0  0  0  0
  -49.8877   58.6421   59.1113 C   0  0  0  0  0  0  0  0  0  0  0  0
  -48.1808   60.6205   59.6098 C   0  0  0  0  0  0  0  0  0  0  0  0
  -49.5153   59.9032   59.8929 C   0  0  0  0  0  0  0  0  0  0  0  0
  -47.1339   60.0456   58.6434 C   0  0  0  0  0  0  0  0  0  0  0  0
  -46.4548   58.8681   59.3582 C   0  0  0  0  0  0  0  0  0  0  0  0
  -45.9675   57.6154   58.5913 C   0  0  0  0  0  0  0  0  0  0  0  0
  -46.1046   57.4954   57.0608 C   0  0  0  0  0  0  0  0  0  0  0  0
  -47.4419   55.3419   57.0061 C   0  0  0  0  0  0  0  0  0  0  0  0
  -47.4685   56.8540   56.7705 C   0  0  0  0  0  0  0  0  0  0  0  0
  -47.5238   58.9499   62.8821 C   0  0  0  0  0  0  0  0  0  0  0  0
  -47.3741   60.3450   63.5340 C   0  0  0  0  0  0  0  0  0  0  0  0
  -45.1192   62.6082   61.6500 C   0  0  0  0  0  0  0  0  0  0  0  0
  -43.8789   62.3564   62.2513 C   0  0  0  0  0  0  0  0  0  0  0  0
  -46.2658   61.9319   62.0836 C   0  0  0  0  0  0  0  0  0  0  0  0
  -43.8125   61.4254   63.2876 C   0  0  0  0  0  0  0  0  0  0  0  0
  -44.9593   60.7614   63.7197 C   0  0  0  0  0  0  0  0  0  0  0  0
  -46.2102   61.0221   63.1455 C   0  0  0  0  0  0  0  0  0  0  0  0
  -42.6515   61.1234   63.9190 O   0  0  0  0  0  0  0  0  0  0  0  0
  -44.8476   59.8647   64.7421 O   0  0  0  0  0  0  0  0  0  0  0  0
  -41.8551   61.5451   63.6621 H   0  0  0  0  0  0  0  0  0  0  0  0
  -44.0098   59.6921   65.1244 H   0  0  0  0  0  0  0  0  0  0  0  0
 12 13  1  0  0  0
  9 10  2  0  0  0
  9  8  1  0  0  0
  6  7  2  0  0  0
  6  8  1  0  0  0
 10 11  1  0  0  0
  7  5  1  0  0  0
 16 17  2  0  0  0
 16 18  1  0  0  0
 17 19  1  0  0  0
 18 21  2  0  0  0
 13 11  1  0  0  0
  5  4  1  0  0  0
  4  3  1  0  0  0
  3  2  1  0  0  0
  2  1  1  0  0  0
  1 14  1  0  0  0
 14 15  1  0  0  0
 15 21  1  0  0  0
 19 20  2  0  0  0
 19 22  1  0  0  0
 20 21  1  0  0  0
 20 23  1  0  0  0
 22 24  1  0  0  0
 23 25  1  0  0  0
M  END
> <minimizedAffinity>
-8.01771

> <CNNscore>
0.3548089862

> <CNNaffinity>
6.1748194695

> <CNN_VS>
2.1908814907

> <CNNaffinity_variance>
0.0633905083

$$$$
/media/chris/experiments/cd1a-new-docking/inputs/ligands/5j1a_ligand.pdb


 25 25  0  0  0  0  0  0  0  0999 V2000
  -50.1360   58.8568   63.5627 C   0  0  0  0  0  0  0  0  0  0  0  0
  -51.0861   59.5517   62.5761 C   0  0  0  0  0  0  0  0  0  0  0  0
  -50.3098   60.0927   61.3833 C   0  0  0  0  0  0  0  0  0  0  0  0
  -49.4956   58.9624   60.7525 C   0  0  0  0  0  0  0  0  0  0  0  0
  -50.4290   57.9323   60.1168 C   0  0  0  0  0  0  0  0  0  0  0  0
  -48.8931   56.1923   58.8170 C   0  0  0  0  0  0  0  0  0  0  0  0
  -49.6889   56.5942   60.0742 C   0  0  0  0  0  0  0  0  0  0  0  0
  -48.9098   57.0388   57.5349 C   0  0  0  0  0  0  0  0  0  0  0  0
  -47.4883   57.0108   56.9542 C   0  0  0  0  0  0  0  0  0  0  0  0
  -46.4431   58.1002   57.2942 C   0  0  0  0  0  0  0  0  0  0  0  0
  -46.7599   59.2556   58.2638 C   0  0  0  0  0  0  0  0  0  0  0  0
  -45.4576   57.5398   59.6013 C   0  0  0  0  0  0  0  0  0  0  0  0
  -46.2775   58.8311   59.6577 C   0  0  0  0  0  0  0  0  0  0  0  0
  -50.3339   59.3145   65.0312 C   0  0  0  0  0  0  0  0  0  0  0  0
  -50.0851   58.1853   66.0591 C   0  0  0  0  0  0  0  0  0  0  0  0
  -46.8830   56.3140   66.0792 C   0  0  0  0  0  0  0  0  0  0  0  0
  -46.0171   57.2177   66.7092 C   0  0  0  0  0  0  0  0  0  0  0  0
  -48.2271   56.6479   65.8745 C   0  0  0  0  0  0  0  0  0  0  0  0
  -46.5197   58.4514   67.1223 C   0  0  0  0  0  0  0  0  0  0  0  0
  -47.8571   58.7805   66.9083 C   0  0  0  0  0  0  0  0  0  0  0  0
  -48.7278   57.8975   66.2566 C   0  0  0  0  0  0  0  0  0  0  0  0
  -45.7487   59.3792   67.7408 O   0  0  0  0  0  0  0  0  0  0  0  0
  -48.3026   60.0019   67.3223 O   0  0  0  0  0  0  0  0  0  0  0  0
  -44.8436   59.2016   67.9056 H   0  0  0  0  0  0  0  0  0  0  0  0
  -47.7182   60.5907   67.7580 H   0  0  0  0  0  0  0  0  0  0  0  0
 12 13  1  0  0  0
  9 10  2  0  0  0
  9  8  1  0  0  0
  6  7  2  0  0  0
  6  8  1  0  0  0
 10 11  1  0  0  0
  7  5  1  0  0  0
 16 17  2  0  0  0
 16 18  1  0  0  0
 17 19  1  0  0  0
 18 21  2  0  0  0
 13 11  1  0  0  0
  5  4  1  0  0  0
  4  3  1  0  0  0
  3  2  1  0  0  0
  2  1  1  0  0  0
  1 14  1  0  0  0
 14 15  1  0  0  0
 15 21  1  0  0  0
 19 20  2  0  0  0
 19 22  1  0  0  0
 20 21  1  0  0  0
 20 23  1  0  0  0
 22 24  1  0  0  0
 23 25  1  0  0  0
M  END
> <minimizedAffinity>
-8.41554

> <CNNscore>
0.3455360532

> <CNNaffinity>
6.2705860138

> <CNN_VS>
2.1667134762

> <CNNaffinity_variance>
0.1899212748

$$$$
