/media/chris/experiments/cd1a-new-docking/inputs/ligands/5j1a_ligand.pdb


 25 25  0  0  0  0  0  0  0  0999 V2000
  -48.2562   56.2684   58.6113 C   0  0  0  0  0  0  0  0  0  0  0  0
  -49.0658   56.3852   59.9113 C   0  0  0  0  0  0  0  0  0  0  0  0
  -50.0619   57.5326   59.8149 C   0  0  0  0  0  0  0  0  0  0  0  0
  -50.9052   57.5812   61.0895 C   0  0  0  0  0  0  0  0  0  0  0  0
  -50.1803   58.3825   62.1705 C   0  0  0  0  0  0  0  0  0  0  0  0
  -51.1352   60.1608   63.9032 C   0  0  0  0  0  0  0  0  0  0  0  0
  -51.0101   59.6346   62.4600 C   0  0  0  0  0  0  0  0  0  0  0  0
  -50.5508   59.3999   65.1032 C   0  0  0  0  0  0  0  0  0  0  0  0
  -49.1170   59.9096   65.3091 C   0  0  0  0  0  0  0  0  0  0  0  0
  -47.9071   58.9469   65.3746 C   0  0  0  0  0  0  0  0  0  0  0  0
  -48.0701   57.4242   65.2008 C   0  0  0  0  0  0  0  0  0  0  0  0
  -46.6614   57.3950   67.3085 C   0  0  0  0  0  0  0  0  0  0  0  0
  -46.9081   56.7498   65.9427 C   0  0  0  0  0  0  0  0  0  0  0  0
  -46.7253   56.3859   58.8288 C   0  0  0  0  0  0  0  0  0  0  0  0
  -46.1503   57.7506   58.3812 C   0  0  0  0  0  0  0  0  0  0  0  0
  -47.7444   60.9165   59.4726 C   0  0  0  0  0  0  0  0  0  0  0  0
  -47.2751   61.0455   60.7864 C   0  0  0  0  0  0  0  0  0  0  0  0
  -47.3603   59.8222   58.6884 C   0  0  0  0  0  0  0  0  0  0  0  0
  -46.4248   60.0637   61.2944 C   0  0  0  0  0  0  0  0  0  0  0  0
  -46.0526   58.9726   60.5109 C   0  0  0  0  0  0  0  0  0  0  0  0
  -46.5346   58.8173   59.2049 C   0  0  0  0  0  0  0  0  0  0  0  0
  -45.9257   60.1163   62.5537 O   0  0  0  0  0  0  0  0  0  0  0  0
  -45.2251   58.0327   61.0527 O   0  0  0  0  0  0  0  0  0  0  0  0
  -46.1487   60.8314   63.1166 H   0  0  0  0  0  0  0  0  0  0  0  0
  -44.9039   58.1390   61.9265 H   0  0  0  0  0  0  0  0  0  0  0  0
 12 13  1  0  0  0
  9 10  2  0  0  0
  9  8  1  0  0  0
  6  7  2  0  0  0
  6  8  1  0  0  0
 10 11  1  0  0  0
  7  5  1  0  0  0
 16 17  2  0  0  0
 16 18  1  0  0  0
 17 19  1  0  0  0
 18 21  2  0  0  0
 13 11  1  0  0  0
  5  4  1  0  0  0
  4  3  1  0  0  0
  3  2  1  0  0  0
  2  1  1  0  0  0
  1 14  1  0  0  0
 14 15  1  0  0  0
 15 21  1  0  0  0
 19 20  2  0  0  0
 19 22  1  0  0  0
 20 21  1  0  0  0
 20 23  1  0  0  0
 22 24  1  0  0  0
 23 25  1  0  0  0
M  END
> <minimizedAffinity>
-8.03685

> <CNNscore>
0.6821750998

> <CNNaffinity>
6.7857117653

> <CNN_VS>
4.6290435791

> <CNNaffinity_variance>
0.2532403171

$$$$
/media/chris/experiments/cd1a-new-docking/inputs/ligands/5j1a_ligand.pdb


 25 25  0  0  0  0  0  0  0  0999 V2000
  -47.7790   57.1907   65.7398 C   0  0  0  0  0  0  0  0  0  0  0  0
  -49.1088   57.9117   66.0061 C   0  0  0  0  0  0  0  0  0  0  0  0
  -49.7980   58.2561   64.6929 C   0  0  0  0  0  0  0  0  0  0  0  0
  -48.8370   57.9971   63.5320 C   0  0  0  0  0  0  0  0  0  0  0  0
  -49.3118   58.7352   62.2805 C   0  0  0  0  0  0  0  0  0  0  0  0
  -50.7914   57.4687   60.4687 C   0  0  0  0  0  0  0  0  0  0  0  0
  -50.6485   58.1242   61.8562 C   0  0  0  0  0  0  0  0  0  0  0  0
  -49.6634   57.5093   59.4263 C   0  0  0  0  0  0  0  0  0  0  0  0
  -48.9037   56.1786   59.5279 C   0  0  0  0  0  0  0  0  0  0  0  0
  -47.4003   56.0652   59.1794 C   0  0  0  0  0  0  0  0  0  0  0  0
  -46.5723   57.2905   58.7451 C   0  0  0  0  0  0  0  0  0  0  0  0
  -46.2604   59.3356   60.2108 C   0  0  0  0  0  0  0  0  0  0  0  0
  -45.9030   57.8621   60.0024 C   0  0  0  0  0  0  0  0  0  0  0  0
  -46.5909   57.7765   66.5461 C   0  0  0  0  0  0  0  0  0  0  0  0
  -46.6389   59.3181   66.6668 C   0  0  0  0  0  0  0  0  0  0  0  0
  -46.3001   61.3015   63.5513 C   0  0  0  0  0  0  0  0  0  0  0  0
  -44.9170   61.2692   63.3298 C   0  0  0  0  0  0  0  0  0  0  0  0
  -46.8549   60.6481   64.6581 C   0  0  0  0  0  0  0  0  0  0  0  0
  -44.1091   60.5789   64.2331 C   0  0  0  0  0  0  0  0  0  0  0  0
  -44.6670   59.9371   65.3375 C   0  0  0  0  0  0  0  0  0  0  0  0
  -46.0449   59.9829   65.5855 C   0  0  0  0  0  0  0  0  0  0  0  0
  -42.7636   60.4982   64.0887 O   0  0  0  0  0  0  0  0  0  0  0  0
  -43.8368   59.2807   66.1985 O   0  0  0  0  0  0  0  0  0  0  0  0
  -42.3446   60.9143   63.3613 H   0  0  0  0  0  0  0  0  0  0  0  0
  -42.9154   59.2515   66.0303 H   0  0  0  0  0  0  0  0  0  0  0  0
 12 13  1  0  0  0
  9 10  2  0  0  0
  9  8  1  0  0  0
  6  7  2  0  0  0
  6  8  1  0  0  0
 10 11  1  0  0  0
  7  5  1  0  0  0
 16 17  2  0  0  0
 16 18  1  0  0  0
 17 19  1  0  0  0
 18 21  2  0  0  0
 13 11  1  0  0  0
  5  4  1  0  0  0
  4  3  1  0  0  0
  3  2  1  0  0  0
  2  1  1  0  0  0
  1 14  1  0  0  0
 14 15  1  0  0  0
 15 21  1  0  0  0
 19 20  2  0  0  0
 19 22  1  0  0  0
 20 21  1  0  0  0
 20 23  1  0  0  0
 22 24  1  0  0  0
 23 25  1  0  0  0
M  END
> <minimizedAffinity>
-7.37027

> <CNNscore>
0.4755759537

> <CNNaffinity>
6.4088544846

> <CNN_VS>
3.0478971004

> <CNNaffinity_variance>
0.3129338622

$$$$
/media/chris/experiments/cd1a-new-docking/inputs/ligands/5j1a_ligand.pdb


 25 25  0  0  0  0  0  0  0  0999 V2000
  -42.4933   61.8975   61.8367 C   0  0  0  0  0  0  0  0  0  0  0  0
  -43.4570   62.2281   62.9860 C   0  0  0  0  0  0  0  0  0  0  0  0
  -44.5827   61.2047   63.0458 C   0  0  0  0  0  0  0  0  0  0  0  0
  -45.9097   61.9235   63.2914 C   0  0  0  0  0  0  0  0  0  0  0  0
  -46.8874   60.9935   64.0095 C   0  0  0  0  0  0  0  0  0  0  0  0
  -46.9550   59.8705   66.4200 C   0  0  0  0  0  0  0  0  0  0  0  0
  -46.1559   60.3781   65.2037 C   0  0  0  0  0  0  0  0  0  0  0  0
  -48.4738   60.0688   66.5396 C   0  0  0  0  0  0  0  0  0  0  0  0
  -49.1417   58.7998   65.9903 C   0  0  0  0  0  0  0  0  0  0  0  0
  -50.3999   58.8601   65.0913 C   0  0  0  0  0  0  0  0  0  0  0  0
  -51.0320   60.2003   64.6674 C   0  0  0  0  0  0  0  0  0  0  0  0
  -50.6888   58.8534   62.5470 C   0  0  0  0  0  0  0  0  0  0  0  0
  -51.1722   60.1793   63.1391 C   0  0  0  0  0  0  0  0  0  0  0  0
  -41.4635   60.7953   62.1967 C   0  0  0  0  0  0  0  0  0  0  0  0
  -40.3722   60.6062   61.1167 C   0  0  0  0  0  0  0  0  0  0  0  0
  -39.6383   57.0498   61.8706 C   0  0  0  0  0  0  0  0  0  0  0  0
  -38.2640   56.9702   61.6094 C   0  0  0  0  0  0  0  0  0  0  0  0
  -40.3208   58.2610   61.7061 C   0  0  0  0  0  0  0  0  0  0  0  0
  -37.5953   58.1167   61.1807 C   0  0  0  0  0  0  0  0  0  0  0  0
  -38.2825   59.3175   61.0113 C   0  0  0  0  0  0  0  0  0  0  0  0
  -39.6610   59.4053   61.2438 C   0  0  0  0  0  0  0  0  0  0  0  0
  -36.2671   58.1236   60.9096 O   0  0  0  0  0  0  0  0  0  0  0  0
  -37.5884   60.4112   60.5827 O   0  0  0  0  0  0  0  0  0  0  0  0
  -35.7644   57.3393   61.0093 H   0  0  0  0  0  0  0  0  0  0  0  0
  -36.6663   60.3498   60.4280 H   0  0  0  0  0  0  0  0  0  0  0  0
 12 13  1  0  0  0
  9 10  2  0  0  0
  9  8  1  0  0  0
  6  7  2  0  0  0
  6  8  1  0  0  0
 10 11  1  0  0  0
  7  5  1  0  0  0
 16 17  2  0  0  0
 16 18  1  0  0  0
 17 19  1  0  0  0
 18 21  2  0  0  0
 13 11  1  0  0  0
  5  4  1  0  0  0
  4  3  1  0  0  0
  3  2  1  0  0  0
  2  1  1  0  0  0
  1 14  1  0  0  0
 14 15  1  0  0  0
 15 21  1  0  0  0
 19 20  2  0  0  0
 19 22  1  0  0  0
 20 21  1  0  0  0
 20 23  1  0  0  0
 22 24  1  0  0  0
 23 25  1  0  0  0
M  END
> <minimizedAffinity>
-8.00025

> <CNNscore>
0.3823084533

> <CNNaffinity>
5.8735976219

> <CNN_VS>
2.2455260754

> <CNNaffinity_variance>
0.2404368818

$$$$
/media/chris/experiments/cd1a-new-docking/inputs/ligands/5j1a_ligand.pdb


 25 25  0  0  0  0  0  0  0  0999 V2000
  -46.7584   58.1490   64.9881 C   0  0  0  0  0  0  0  0  0  0  0  0
  -47.9753   57.5514   65.7101 C   0  0  0  0  0  0  0  0  0  0  0  0
  -48.9052   58.6582   66.1880 C   0  0  0  0  0  0  0  0  0  0  0  0
  -50.1523   58.6907   65.3038 C   0  0  0  0  0  0  0  0  0  0  0  0
  -50.2620   60.0418   64.5975 C   0  0  0  0  0  0  0  0  0  0  0  0
  -50.5608   59.7727   61.9679 C   0  0  0  0  0  0  0  0  0  0  0  0
  -51.1710   59.8606   63.3805 C   0  0  0  0  0  0  0  0  0  0  0  0
  -49.0606   59.9836   61.7120 C   0  0  0  0  0  0  0  0  0  0  0  0
  -48.3877   58.6058   61.7973 C   0  0  0  0  0  0  0  0  0  0  0  0
  -47.0665   58.2923   61.0551 C   0  0  0  0  0  0  0  0  0  0  0  0
  -46.3329   59.3576   60.2170 C   0  0  0  0  0  0  0  0  0  0  0  0
  -46.2066   58.0117   58.0720 C   0  0  0  0  0  0  0  0  0  0  0  0
  -46.8269   59.2244   58.7700 C   0  0  0  0  0  0  0  0  0  0  0  0
  -46.4290   59.5968   65.4357 C   0  0  0  0  0  0  0  0  0  0  0  0
  -45.0269   60.0691   64.9837 C   0  0  0  0  0  0  0  0  0  0  0  0
  -46.3658   62.3335   62.3694 C   0  0  0  0  0  0  0  0  0  0  0  0
  -45.2009   62.7371   61.7036 C   0  0  0  0  0  0  0  0  0  0  0  0
  -46.2919   61.4476   63.4508 C   0  0  0  0  0  0  0  0  0  0  0  0
  -43.9725   62.2426   62.1417 C   0  0  0  0  0  0  0  0  0  0  0  0
  -43.9053   61.3669   63.2241 C   0  0  0  0  0  0  0  0  0  0  0  0
  -45.0590   60.9753   63.9152 C   0  0  0  0  0  0  0  0  0  0  0  0
  -42.8009   62.5819   61.5504 O   0  0  0  0  0  0  0  0  0  0  0  0
  -42.6810   60.9151   63.6222 O   0  0  0  0  0  0  0  0  0  0  0  0
  -42.7974   63.1679   60.8193 H   0  0  0  0  0  0  0  0  0  0  0  0
  -41.9107   61.1784   63.1582 H   0  0  0  0  0  0  0  0  0  0  0  0
 12 13  1  0  0  0
  9 10  2  0  0  0
  9  8  1  0  0  0
  6  7  2  0  0  0
  6  8  1  0  0  0
 10 11  1  0  0  0
  7  5  1  0  0  0
 16 17  2  0  0  0
 16 18  1  0  0  0
 17 19  1  0  0  0
 18 21  2  0  0  0
 13 11  1  0  0  0
  5  4  1  0  0  0
  4  3  1  0  0  0
  3  2  1  0  0  0
  2  1  1  0  0  0
  1 14  1  0  0  0
 14 15  1  0  0  0
 15 21  1  0  0  0
 19 20  2  0  0  0
 19 22  1  0  0  0
 20 21  1  0  0  0
 20 23  1  0  0  0
 22 24  1  0  0  0
 23 25  1  0  0  0
M  END
> <minimizedAffinity>
-7.30215

> <CNNscore>
0.3815886080

> <CNNaffinity>
6.2022171021

> <CNN_VS>
2.3666954041

> <CNNaffinity_variance>
0.2099970281

$$$$
/media/chris/experiments/cd1a-new-docking/inputs/ligands/5j1a_ligand.pdb


 25 25  0  0  0  0  0  0  0  0999 V2000
  -48.0509   58.5663   58.3069 C   0  0  0  0  0  0  0  0  0  0  0  0
  -49.5402   58.2509   58.5109 C   0  0  0  0  0  0  0  0  0  0  0  0
  -49.7249   57.2960   59.6822 C   0  0  0  0  0  0  0  0  0  0  0  0
  -50.7475   57.8804   60.6573 C   0  0  0  0  0  0  0  0  0  0  0  0
  -50.0450   58.3841   61.9180 C   0  0  0  0  0  0  0  0  0  0  0  0
  -50.9214   59.6858   64.0660 C   0  0  0  0  0  0  0  0  0  0  0  0
  -50.9231   59.4715   62.5397 C   0  0  0  0  0  0  0  0  0  0  0  0
  -50.1530   58.7582   65.0198 C   0  0  0  0  0  0  0  0  0  0  0  0
  -49.6560   59.6207   66.1891 C   0  0  0  0  0  0  0  0  0  0  0  0
  -48.3157   60.3915   66.1262 C   0  0  0  0  0  0  0  0  0  0  0  0
  -47.4213   60.3652   64.8713 C   0  0  0  0  0  0  0  0  0  0  0  0
  -45.2845   59.6452   66.0304 C   0  0  0  0  0  0  0  0  0  0  0  0
  -46.3965   59.2385   65.0607 C   0  0  0  0  0  0  0  0  0  0  0  0
  -47.5262   59.6845   59.2445 C   0  0  0  0  0  0  0  0  0  0  0  0
  -46.4736   59.1820   60.2608 C   0  0  0  0  0  0  0  0  0  0  0  0
  -46.1820   62.4589   61.9733 C   0  0  0  0  0  0  0  0  0  0  0  0
  -45.0208   62.2895   62.7388 C   0  0  0  0  0  0  0  0  0  0  0  0
  -46.6479   61.4223   61.1557 C   0  0  0  0  0  0  0  0  0  0  0  0
  -44.3451   61.0712   62.6718 C   0  0  0  0  0  0  0  0  0  0  0  0
  -44.8188   60.0405   61.8618 C   0  0  0  0  0  0  0  0  0  0  0  0
  -45.9924   60.1867   61.1112 C   0  0  0  0  0  0  0  0  0  0  0  0
  -43.2140   60.8287   63.3786 O   0  0  0  0  0  0  0  0  0  0  0  0
  -44.1292   58.8635   61.8341 O   0  0  0  0  0  0  0  0  0  0  0  0
  -42.8587   61.4924   63.9365 H   0  0  0  0  0  0  0  0  0  0  0  0
  -43.3444   58.7683   62.3370 H   0  0  0  0  0  0  0  0  0  0  0  0
 12 13  1  0  0  0
  9 10  2  0  0  0
  9  8  1  0  0  0
  6  7  2  0  0  0
  6  8  1  0  0  0
 10 11  1  0  0  0
  7  5  1  0  0  0
 16 17  2  0  0  0
 16 18  1  0  0  0
 17 19  1  0  0  0
 18 21  2  0  0  0
 13 11  1  0  0  0
  5  4  1  0  0  0
  4  3  1  0  0  0
  3  2  1  0  0  0
  2  1  1  0  0  0
  1 14  1  0  0  0
 14 15  1  0  0  0
 15 21  1  0  0  0
 19 20  2  0  0  0
 19 22  1  0  0  0
 20 21  1  0  0  0
 20 23  1  0  0  0
 22 24  1  0  0  0
 23 25  1  0  0  0
M  END
> <minimizedAffinity>
-7.39762

> <CNNscore>
0.3805476129

> <CNNaffinity>
6.2635917664

> <CNN_VS>
2.3835949898

> <CNNaffinity_variance>
0.1618656069

$$$$
/media/chris/experiments/cd1a-new-docking/inputs/ligands/5j1a_ligand.pdb


 25 25  0  0  0  0  0  0  0  0999 V2000
  -46.3075   57.1632   66.7660 C   0  0  0  0  0  0  0  0  0  0  0  0
  -47.6901   56.6849   66.2983 C   0  0  0  0  0  0  0  0  0  0  0  0
  -48.2269   57.6000   65.2063 C   0  0  0  0  0  0  0  0  0  0  0  0
  -49.5418   58.2272   65.6705 C   0  0  0  0  0  0  0  0  0  0  0  0
  -49.5805   59.7084   65.2947 C   0  0  0  0  0  0  0  0  0  0  0  0
  -51.1719   59.8397   63.1672 C   0  0  0  0  0  0  0  0  0  0  0  0
  -50.9524   60.0002   64.6842 C   0  0  0  0  0  0  0  0  0  0  0  0
  -50.0198   59.5092   62.2059 C   0  0  0  0  0  0  0  0  0  0  0  0
  -50.0314   57.9890   61.9895 C   0  0  0  0  0  0  0  0  0  0  0  0
  -50.2390   57.3626   60.5897 C   0  0  0  0  0  0  0  0  0  0  0  0
  -50.4098   58.2313   59.3281 C   0  0  0  0  0  0  0  0  0  0  0  0
  -48.0021   58.9013   58.9013 C   0  0  0  0  0  0  0  0  0  0  0  0
  -49.1681   58.0179   58.4515 C   0  0  0  0  0  0  0  0  0  0  0  0
  -46.2039   58.7048   66.8992 C   0  0  0  0  0  0  0  0  0  0  0  0
  -44.9971   59.3015   66.1371 C   0  0  0  0  0  0  0  0  0  0  0  0
  -46.4889   60.6388   63.0160 C   0  0  0  0  0  0  0  0  0  0  0  0
  -45.8427   59.8799   62.0313 C   0  0  0  0  0  0  0  0  0  0  0  0
  -46.2006   60.4331   64.3704 C   0  0  0  0  0  0  0  0  0  0  0  0
  -44.9085   58.9231   62.4274 C   0  0  0  0  0  0  0  0  0  0  0  0
  -44.6203   58.7288   63.7773 C   0  0  0  0  0  0  0  0  0  0  0  0
  -45.2395   59.4979   64.7708 C   0  0  0  0  0  0  0  0  0  0  0  0
  -44.2425   58.1469   61.5376 O   0  0  0  0  0  0  0  0  0  0  0  0
  -43.6936   57.7869   64.1172 O   0  0  0  0  0  0  0  0  0  0  0  0
  -44.4038   58.2424   60.6196 H   0  0  0  0  0  0  0  0  0  0  0  0
  -43.2809   57.2736   63.4507 H   0  0  0  0  0  0  0  0  0  0  0  0
 12 13  1  0  0  0
  9 10  2  0  0  0
  9  8  1  0  0  0
  6  7  2  0  0  0
  6  8  1  0  0  0
 10 11  1  0  0  0
  7  5  1  0  0  0
 16 17  2  0  0  0
 16 18  1  0  0  0
 17 19  1  0  0  0
 18 21  2  0  0  0
 13 11  1  0  0  0
  5  4  1  0  0  0
  4  3  1  0  0  0
  3  2  1  0  0  0
  2  1  1  0  0  0
  1 14  1  0  0  0
 14 15  1  0  0  0
 15 21  1  0  0  0
 19 20  2  0  0  0
 19 22  1  0  0  0
 20 21  1  0  0  0
 20 23  1  0  0  0
 22 24  1  0  0  0
 23 25  1  0  0  0
M  END
> <minimizedAffinity>
-7.11837

> <CNNscore>
0.3775516152

> <CNNaffinity>
6.4412231445

> <CNN_VS>
2.4318943024

> <CNNaffinity_variance>
0.2418619394

$$$$
/media/chris/experiments/cd1a-new-docking/inputs/ligands/5j1a_ligand.pdb


 25 25  0  0  0  0  0  0  0  0999 V2000
  -34.5279   58.7572   63.2577 C   0  0  0  0  0  0  0  0  0  0  0  0
  -35.1190   57.5588   62.5004 C   0  0  0  0  0  0  0  0  0  0  0  0
  -36.5446   57.2899   62.9623 C   0  0  0  0  0  0  0  0  0  0  0  0
  -37.4448   57.0926   61.7421 C   0  0  0  0  0  0  0  0  0  0  0  0
  -37.3521   58.3062   60.8174 C   0  0  0  0  0  0  0  0  0  0  0  0
  -39.6502   59.6315   61.0130 C   0  0  0  0  0  0  0  0  0  0  0  0
  -38.7580   58.6022   60.2920 C   0  0  0  0  0  0  0  0  0  0  0  0
  -39.2270   60.2977   62.3312 C   0  0  0  0  0  0  0  0  0  0  0  0
  -40.4694   60.3506   63.2322 C   0  0  0  0  0  0  0  0  0  0  0  0
  -40.9087   59.1422   64.0932 C   0  0  0  0  0  0  0  0  0  0  0  0
  -40.1022   57.8291   64.1219 C   0  0  0  0  0  0  0  0  0  0  0  0
  -40.9636   56.2910   62.2996 C   0  0  0  0  0  0  0  0  0  0  0  0
  -41.0685   56.6885   63.7739 C   0  0  0  0  0  0  0  0  0  0  0  0
  -35.4085   59.2288   64.4439 C   0  0  0  0  0  0  0  0  0  0  0  0
  -36.0741   60.6036   64.1984 C   0  0  0  0  0  0  0  0  0  0  0  0
  -33.7413   63.0891   65.6598 C   0  0  0  0  0  0  0  0  0  0  0  0
  -34.4914   63.6082   66.7233 C   0  0  0  0  0  0  0  0  0  0  0  0
  -34.2778   62.0928   64.8355 C   0  0  0  0  0  0  0  0  0  0  0  0
  -35.7785   63.1162   66.9392 C   0  0  0  0  0  0  0  0  0  0  0  0
  -36.3096   62.1298   66.1099 C   0  0  0  0  0  0  0  0  0  0  0  0
  -35.5810   61.6202   65.0275 C   0  0  0  0  0  0  0  0  0  0  0  0
  -36.5670   63.5636   67.9471 O   0  0  0  0  0  0  0  0  0  0  0  0
  -37.5759   61.6844   66.3546 O   0  0  0  0  0  0  0  0  0  0  0  0
  -36.2519   64.2263   68.5297 H   0  0  0  0  0  0  0  0  0  0  0  0
  -38.0611   62.0268   67.0793 H   0  0  0  0  0  0  0  0  0  0  0  0
 12 13  1  0  0  0
  9 10  2  0  0  0
  9  8  1  0  0  0
  6  7  2  0  0  0
  6  8  1  0  0  0
 10 11  1  0  0  0
  7  5  1  0  0  0
 16 17  2  0  0  0
 16 18  1  0  0  0
 17 19  1  0  0  0
 18 21  2  0  0  0
 13 11  1  0  0  0
  5  4  1  0  0  0
  4  3  1  0  0  0
  3  2  1  0  0  0
  2  1  1  0  0  0
  1 14  1  0  0  0
 14 15  1  0  0  0
 15 21  1  0  0  0
 19 20  2  0  0  0
 19 22  1  0  0  0
 20 21  1  0  0  0
 20 23  1  0  0  0
 22 24  1  0  0  0
 23 25  1  0  0  0
M  END
> <minimizedAffinity>
-7.17986

> <CNNscore>
0.3754681349

> <CNNaffinity>
5.9891142845

> <CNN_VS>
2.2487215996

> <CNNaffinity_variance>
0.2573240697

$$$$
/media/chris/experiments/cd1a-new-docking/inputs/ligands/5j1a_ligand.pdb


 25 25  0  0  0  0  0  0  0  0999 V2000
  -48.8771   59.7704   63.7075 C   0  0  0  0  0  0  0  0  0  0  0  0
  -50.3978   59.9836   63.7395 C   0  0  0  0  0  0  0  0  0  0  0  0
  -51.0587   59.2687   62.5689 C   0  0  0  0  0  0  0  0  0  0  0  0
  -50.0374   58.3556   61.8897 C   0  0  0  0  0  0  0  0  0  0  0  0
  -50.7376   57.4312   60.8938 C   0  0  0  0  0  0  0  0  0  0  0  0
  -49.1225   57.3553   58.7816 C   0  0  0  0  0  0  0  0  0  0  0  0
  -50.3792   57.9051   59.4842 C   0  0  0  0  0  0  0  0  0  0  0  0
  -48.1292   56.4252   59.4949 C   0  0  0  0  0  0  0  0  0  0  0  0
  -46.7246   56.7915   58.9939 C   0  0  0  0  0  0  0  0  0  0  0  0
  -45.9995   58.0778   59.4570 C   0  0  0  0  0  0  0  0  0  0  0  0
  -46.6330   59.0455   60.4758 C   0  0  0  0  0  0  0  0  0  0  0  0
  -48.2092   61.0241   60.3059 C   0  0  0  0  0  0  0  0  0  0  0  0
  -46.9638   60.3457   59.7304 C   0  0  0  0  0  0  0  0  0  0  0  0
  -48.0996   60.7569   64.6170 C   0  0  0  0  0  0  0  0  0  0  0  0
  -46.6254   60.3448   64.8412 C   0  0  0  0  0  0  0  0  0  0  0  0
  -45.2736   62.5398   62.1748 C   0  0  0  0  0  0  0  0  0  0  0  0
  -44.0593   61.9135   61.8644 C   0  0  0  0  0  0  0  0  0  0  0  0
  -46.1132   62.0065   63.1599 C   0  0  0  0  0  0  0  0  0  0  0  0
  -43.7055   60.7558   62.5569 C   0  0  0  0  0  0  0  0  0  0  0  0
  -44.5424   60.2344   63.5421 C   0  0  0  0  0  0  0  0  0  0  0  0
  -45.7468   60.8643   63.8809 C   0  0  0  0  0  0  0  0  0  0  0  0
  -42.5502   60.0894   62.3145 O   0  0  0  0  0  0  0  0  0  0  0  0
  -44.1514   59.1042   64.1988 O   0  0  0  0  0  0  0  0  0  0  0  0
  -41.9565   60.4031   61.6609 H   0  0  0  0  0  0  0  0  0  0  0  0
  -43.3453   58.6847   63.9703 H   0  0  0  0  0  0  0  0  0  0  0  0
 12 13  1  0  0  0
  9 10  2  0  0  0
  9  8  1  0  0  0
  6  7  2  0  0  0
  6  8  1  0  0  0
 10 11  1  0  0  0
  7  5  1  0  0  0
 16 17  2  0  0  0
 16 18  1  0  0  0
 17 19  1  0  0  0
 18 21  2  0  0  0
 13 11  1  0  0  0
  5  4  1  0  0  0
  4  3  1  0  0  0
  3  2  1  0  0  0
  2  1  1  0  0  0
  1 14  1  0  0  0
 14 15  1  0  0  0
 15 21  1  0  0  0
 19 20  2  0  0  0
 19 22  1  0  0  0
 20 21  1  0  0  0
 20 23  1  0  0  0
 22 24  1  0  0  0
 23 25  1  0  0  0
M  END
> <minimizedAffinity>
-7.36452

> <CNNscore>
0.3103456795

> <CNNaffinity>
6.0586075783

> <CNN_VS>
1.8802627325

> <CNNaffinity_variance>
0.2171423435

$$$$
/media/chris/experiments/cd1a-new-docking/inputs/ligands/5j1a_ligand.pdb


 25 25  0  0  0  0  0  0  0  0999 V2000
  -40.3108   58.4458   65.0559 C   0  0  0  0  0  0  0  0  0  0  0  0
  -41.1873   59.6609   65.3937 C   0  0  0  0  0  0  0  0  0  0  0  0
  -42.2742   59.8401   64.3426 C   0  0  0  0  0  0  0  0  0  0  0  0
  -41.8399   60.9104   63.3407 C   0  0  0  0  0  0  0  0  0  0  0  0
  -41.2852   60.2543   62.0765 C   0  0  0  0  0  0  0  0  0  0  0  0
  -38.8502   59.7728   61.1199 C   0  0  0  0  0  0  0  0  0  0  0  0
  -39.8095   60.6398   61.9586 C   0  0  0  0  0  0  0  0  0  0  0  0
  -39.2935   58.4467   60.4831 C   0  0  0  0  0  0  0  0  0  0  0  0
  -39.0584   57.3426   61.5241 C   0  0  0  0  0  0  0  0  0  0  0  0
  -37.6356   56.8891   61.9299 C   0  0  0  0  0  0  0  0  0  0  0  0
  -36.3736   57.5462   61.3375 C   0  0  0  0  0  0  0  0  0  0  0  0
  -33.8472   57.4412   61.5224 C   0  0  0  0  0  0  0  0  0  0  0  0
  -35.1799   57.1056   62.1958 C   0  0  0  0  0  0  0  0  0  0  0  0
  -38.7961   58.7750   65.0103 C   0  0  0  0  0  0  0  0  0  0  0  0
  -38.4724   60.2149   65.4745 C   0  0  0  0  0  0  0  0  0  0  0  0
  -35.2631   60.6006   63.6560 C   0  0  0  0  0  0  0  0  0  0  0  0
  -34.4840   61.3099   64.5796 C   0  0  0  0  0  0  0  0  0  0  0  0
  -36.5800   60.2427   63.9684 C   0  0  0  0  0  0  0  0  0  0  0  0
  -35.0470   61.6529   65.8086 C   0  0  0  0  0  0  0  0  0  0  0  0
  -36.3614   61.3003   66.1102 C   0  0  0  0  0  0  0  0  0  0  0  0
  -37.1602   60.6140   65.1866 C   0  0  0  0  0  0  0  0  0  0  0  0
  -34.3596   62.3359   66.7566 O   0  0  0  0  0  0  0  0  0  0  0  0
  -36.8725   61.6641   67.3219 O   0  0  0  0  0  0  0  0  0  0  0  0
  -33.4729   62.5939   66.5978 H   0  0  0  0  0  0  0  0  0  0  0  0
  -36.3360   62.1231   67.9379 H   0  0  0  0  0  0  0  0  0  0  0  0
 12 13  1  0  0  0
  9 10  2  0  0  0
  9  8  1  0  0  0
  6  7  2  0  0  0
  6  8  1  0  0  0
 10 11  1  0  0  0
  7  5  1  0  0  0
 16 17  2  0  0  0
 16 18  1  0  0  0
 17 19  1  0  0  0
 18 21  2  0  0  0
 13 11  1  0  0  0
  5  4  1  0  0  0
  4  3  1  0  0  0
  3  2  1  0  0  0
  2  1  1  0  0  0
  1 14  1  0  0  0
 14 15  1  0  0  0
 15 21  1  0  0  0
 19 20  2  0  0  0
 19 22  1  0  0  0
 20 21  1  0  0  0
 20 23  1  0  0  0
 22 24  1  0  0  0
 23 25  1  0  0  0
M  END
> <minimizedAffinity>
-7.04202

> <CNNscore>
0.3065817356

> <CNNaffinity>
5.9546055794

> <CNN_VS>
1.8255733252

> <CNNaffinity_variance>
0.1725245416

$$$$
