/media/chris/experiments/cd1a-new-docking/inputs/ligands/5j1a_ligand.pdb


 25 25  0  0  0  0  0  0  0  0999 V2000
  -51.0044   57.8528   61.3823 C   0  0  0  0  0  0  0  0  0  0  0  0
  -50.3452   58.6652   62.5069 C   0  0  0  0  0  0  0  0  0  0  0  0
  -51.1777   59.8986   62.8286 C   0  0  0  0  0  0  0  0  0  0  0  0
  -51.1144   60.1761   64.3310 C   0  0  0  0  0  0  0  0  0  0  0  0
  -50.3462   59.0613   65.0406 C   0  0  0  0  0  0  0  0  0  0  0  0
  -48.2305   60.0727   66.2967 C   0  0  0  0  0  0  0  0  0  0  0  0
  -49.7148   59.6572   66.3001 C   0  0  0  0  0  0  0  0  0  0  0  0
  -47.3086   59.7983   65.0986 C   0  0  0  0  0  0  0  0  0  0  0  0
  -47.5067   60.9486   64.1008 C   0  0  0  0  0  0  0  0  0  0  0  0
  -46.9711   60.8763   62.6507 C   0  0  0  0  0  0  0  0  0  0  0  0
  -46.2397   59.6296   62.1160 C   0  0  0  0  0  0  0  0  0  0  0  0
  -44.5215   61.4633   61.7791 C   0  0  0  0  0  0  0  0  0  0  0  0
  -44.7455   59.9715   62.0380 C   0  0  0  0  0  0  0  0  0  0  0  0
  -50.1665   57.8182   60.0778 C   0  0  0  0  0  0  0  0  0  0  0  0
  -48.6499   57.6502   60.3332 C   0  0  0  0  0  0  0  0  0  0  0  0
  -46.5659   58.6619   57.4369 C   0  0  0  0  0  0  0  0  0  0  0  0
  -46.4231   57.4546   56.7400 C   0  0  0  0  0  0  0  0  0  0  0  0
  -47.3087   58.7108   58.6224 C   0  0  0  0  0  0  0  0  0  0  0  0
  -47.0305   56.3085   57.2524 C   0  0  0  0  0  0  0  0  0  0  0  0
  -47.7621   56.3627   58.4376 C   0  0  0  0  0  0  0  0  0  0  0  0
  -47.8915   57.5569   59.1583 C   0  0  0  0  0  0  0  0  0  0  0  0
  -46.9423   55.1035   56.6377 O   0  0  0  0  0  0  0  0  0  0  0  0
  -48.3323   55.2145   58.9051 O   0  0  0  0  0  0  0  0  0  0  0  0
  -46.4607   55.0196   55.8383 H   0  0  0  0  0  0  0  0  0  0  0  0
  -48.2443   54.4170   58.4211 H   0  0  0  0  0  0  0  0  0  0  0  0
 12 13  1  0  0  0
  9 10  2  0  0  0
  9  8  1  0  0  0
  6  7  2  0  0  0
  6  8  1  0  0  0
 10 11  1  0  0  0
  7  5  1  0  0  0
 16 17  2  0  0  0
 16 18  1  0  0  0
 17 19  1  0  0  0
 18 21  2  0  0  0
 13 11  1  0  0  0
  5  4  1  0  0  0
  4  3  1  0  0  0
  3  2  1  0  0  0
  2  1  1  0  0  0
  1 14  1  0  0  0
 14 15  1  0  0  0
 15 21  1  0  0  0
 19 20  2  0  0  0
 19 22  1  0  0  0
 20 21  1  0  0  0
 20 23  1  0  0  0
 22 24  1  0  0  0
 23 25  1  0  0  0
M  END
> <minimizedAffinity>
-8.16888

> <CNNscore>
0.5800298452

> <CNNaffinity>
6.9540305138

> <CNN_VS>
4.0335450172

> <CNNaffinity_variance>
0.1039897427

$$$$
/media/chris/experiments/cd1a-new-docking/inputs/ligands/5j1a_ligand.pdb


 25 25  0  0  0  0  0  0  0  0999 V2000
  -47.1710   61.2695   60.7447 C   0  0  0  0  0  0  0  0  0  0  0  0
  -47.3985   60.3762   61.9733 C   0  0  0  0  0  0  0  0  0  0  0  0
  -46.1220   59.6257   62.3275 C   0  0  0  0  0  0  0  0  0  0  0  0
  -45.5422   60.1936   63.6233 C   0  0  0  0  0  0  0  0  0  0  0  0
  -46.6676   60.5271   64.6024 C   0  0  0  0  0  0  0  0  0  0  0  0
  -47.0763   58.4207   66.1748 C   0  0  0  0  0  0  0  0  0  0  0  0
  -46.3917   59.7751   65.9056 C   0  0  0  0  0  0  0  0  0  0  0  0
  -48.1366   57.8391   65.2271 C   0  0  0  0  0  0  0  0  0  0  0  0
  -49.4881   57.9248   65.9512 C   0  0  0  0  0  0  0  0  0  0  0  0
  -50.4684   59.0997   65.7193 C   0  0  0  0  0  0  0  0  0  0  0  0
  -50.1579   60.2319   64.7208 C   0  0  0  0  0  0  0  0  0  0  0  0
  -50.7905   59.0430   62.5725 C   0  0  0  0  0  0  0  0  0  0  0  0
  -51.1778   60.1297   63.5785 C   0  0  0  0  0  0  0  0  0  0  0  0
  -48.0680   60.8925   59.5372 C   0  0  0  0  0  0  0  0  0  0  0  0
  -48.6439   59.4597   59.6309 C   0  0  0  0  0  0  0  0  0  0  0  0
  -46.4102   58.1255   56.9879 C   0  0  0  0  0  0  0  0  0  0  0  0
  -46.7715   56.7721   56.9517 C   0  0  0  0  0  0  0  0  0  0  0  0
  -47.0415   59.0027   57.8777 C   0  0  0  0  0  0  0  0  0  0  0  0
  -47.7655   56.3198   57.8191 C   0  0  0  0  0  0  0  0  0  0  0  0
  -48.3845   57.1970   58.7081 C   0  0  0  0  0  0  0  0  0  0  0  0
  -48.0154   58.5467   58.7733 C   0  0  0  0  0  0  0  0  0  0  0  0
  -48.1738   55.0274   57.8446 O   0  0  0  0  0  0  0  0  0  0  0  0
  -49.3463   56.7080   59.5435 O   0  0  0  0  0  0  0  0  0  0  0  0
  -47.7857   54.4020   57.2646 H   0  0  0  0  0  0  0  0  0  0  0  0
  -49.5914   55.8048   59.4978 H   0  0  0  0  0  0  0  0  0  0  0  0
 12 13  1  0  0  0
  9 10  2  0  0  0
  9  8  1  0  0  0
  6  7  2  0  0  0
  6  8  1  0  0  0
 10 11  1  0  0  0
  7  5  1  0  0  0
 16 17  2  0  0  0
 16 18  1  0  0  0
 17 19  1  0  0  0
 18 21  2  0  0  0
 13 11  1  0  0  0
  5  4  1  0  0  0
  4  3  1  0  0  0
  3  2  1  0  0  0
  2  1  1  0  0  0
  1 14  1  0  0  0
 14 15  1  0  0  0
 15 21  1  0  0  0
 19 20  2  0  0  0
 19 22  1  0  0  0
 20 21  1  0  0  0
 20 23  1  0  0  0
 22 24  1  0  0  0
 23 25  1  0  0  0
M  END
> <minimizedAffinity>
-7.87276

> <CNNscore>
0.5453605652

> <CNNaffinity>
6.8242974281

> <CNN_VS>
3.7217028141

> <CNNaffinity_variance>
0.2235953510

$$$$
/media/chris/experiments/cd1a-new-docking/inputs/ligands/5j1a_ligand.pdb


 25 25  0  0  0  0  0  0  0  0999 V2000
  -46.4925   57.4704   56.5485 C   0  0  0  0  0  0  0  0  0  0  0  0
  -46.9487   56.0629   56.9608 C   0  0  0  0  0  0  0  0  0  0  0  0
  -48.2781   56.1311   57.6999 C   0  0  0  0  0  0  0  0  0  0  0  0
  -48.1278   55.4816   59.0760 C   0  0  0  0  0  0  0  0  0  0  0  0
  -49.1547   56.0626   60.0478 C   0  0  0  0  0  0  0  0  0  0  0  0
  -50.4006   58.3947   60.3409 C   0  0  0  0  0  0  0  0  0  0  0  0
  -49.6837   57.3654   59.4452 C   0  0  0  0  0  0  0  0  0  0  0  0
  -50.7198   58.1107   61.8167 C   0  0  0  0  0  0  0  0  0  0  0  0
  -51.0673   59.4551   62.4725 C   0  0  0  0  0  0  0  0  0  0  0  0
  -50.4708   59.8797   63.8359 C   0  0  0  0  0  0  0  0  0  0  0  0
  -49.4658   58.9915   64.5950 C   0  0  0  0  0  0  0  0  0  0  0  0
  -48.5835   59.9913   66.7515 C   0  0  0  0  0  0  0  0  0  0  0  0
  -48.4216   59.9191   65.2312 C   0  0  0  0  0  0  0  0  0  0  0  0
  -46.7432   58.5416   57.6414 C   0  0  0  0  0  0  0  0  0  0  0  0
  -45.9648   58.2691   58.9503 C   0  0  0  0  0  0  0  0  0  0  0  0
  -47.5702   61.0725   60.7720 C   0  0  0  0  0  0  0  0  0  0  0  0
  -46.9548   60.9987   62.0287 C   0  0  0  0  0  0  0  0  0  0  0  0
  -47.2292   60.1642   59.7629 C   0  0  0  0  0  0  0  0  0  0  0  0
  -46.0033   60.0038   62.2522 C   0  0  0  0  0  0  0  0  0  0  0  0
  -45.6743   59.0977   61.2455 C   0  0  0  0  0  0  0  0  0  0  0  0
  -46.3000   59.1433   59.9931 C   0  0  0  0  0  0  0  0  0  0  0  0
  -45.3611   59.8667   63.4382 O   0  0  0  0  0  0  0  0  0  0  0  0
  -44.7433   58.1363   61.5122 O   0  0  0  0  0  0  0  0  0  0  0  0
  -45.5503   60.4534   64.1439 H   0  0  0  0  0  0  0  0  0  0  0  0
  -44.3261   58.1080   62.3508 H   0  0  0  0  0  0  0  0  0  0  0  0
 12 13  1  0  0  0
  9 10  2  0  0  0
  9  8  1  0  0  0
  6  7  2  0  0  0
  6  8  1  0  0  0
 10 11  1  0  0  0
  7  5  1  0  0  0
 16 17  2  0  0  0
 16 18  1  0  0  0
 17 19  1  0  0  0
 18 21  2  0  0  0
 13 11  1  0  0  0
  5  4  1  0  0  0
  4  3  1  0  0  0
  3  2  1  0  0  0
  2  1  1  0  0  0
  1 14  1  0  0  0
 14 15  1  0  0  0
 15 21  1  0  0  0
 19 20  2  0  0  0
 19 22  1  0  0  0
 20 21  1  0  0  0
 20 23  1  0  0  0
 22 24  1  0  0  0
 23 25  1  0  0  0
M  END
> <minimizedAffinity>
-7.69171

> <CNNscore>
0.4795607328

> <CNNaffinity>
6.5950598717

> <CNN_VS>
3.1627316475

> <CNNaffinity_variance>
0.0590826198

$$$$
/media/chris/experiments/cd1a-new-docking/inputs/ligands/5j1a_ligand.pdb


 25 25  0  0  0  0  0  0  0  0999 V2000
  -49.0208   58.9532   62.0050 C   0  0  0  0  0  0  0  0  0  0  0  0
  -50.3099   58.5532   62.7381 C   0  0  0  0  0  0  0  0  0  0  0  0
  -51.1777   59.7781   62.9922 C   0  0  0  0  0  0  0  0  0  0  0  0
  -50.8819   60.3292   64.3874 C   0  0  0  0  0  0  0  0  0  0  0  0
  -50.5573   59.1852   65.3479 C   0  0  0  0  0  0  0  0  0  0  0  0
  -48.0931   58.8694   66.2988 C   0  0  0  0  0  0  0  0  0  0  0  0
  -49.4218   59.6497   66.2615 C   0  0  0  0  0  0  0  0  0  0  0  0
  -47.8987   57.5511   65.5341 C   0  0  0  0  0  0  0  0  0  0  0  0
  -46.4274   57.1436   65.6992 C   0  0  0  0  0  0  0  0  0  0  0  0
  -45.3308   57.6178   64.7156 C   0  0  0  0  0  0  0  0  0  0  0  0
  -45.6490   58.5559   63.5349 C   0  0  0  0  0  0  0  0  0  0  0  0
  -45.4478   58.1738   61.0365 C   0  0  0  0  0  0  0  0  0  0  0  0
  -44.7137   58.1740   62.3795 C   0  0  0  0  0  0  0  0  0  0  0  0
  -49.2738   59.8378   60.7567 C   0  0  0  0  0  0  0  0  0  0  0  0
  -49.6526   59.0209   59.4987 C   0  0  0  0  0  0  0  0  0  0  0  0
  -46.5502   58.6155   57.5072 C   0  0  0  0  0  0  0  0  0  0  0  0
  -46.3680   57.2263   57.5242 C   0  0  0  0  0  0  0  0  0  0  0  0
  -47.6439   59.1936   58.1624 C   0  0  0  0  0  0  0  0  0  0  0  0
  -47.2927   56.4369   58.2075 C   0  0  0  0  0  0  0  0  0  0  0  0
  -48.3751   57.0197   58.8644 C   0  0  0  0  0  0  0  0  0  0  0  0
  -48.5554   58.4088   58.8776 C   0  0  0  0  0  0  0  0  0  0  0  0
  -47.1894   55.0866   58.2693 O   0  0  0  0  0  0  0  0  0  0  0  0
  -49.2500   56.2084   59.5265 O   0  0  0  0  0  0  0  0  0  0  0  0
  -46.4778   54.6512   57.8424 H   0  0  0  0  0  0  0  0  0  0  0  0
  -49.1272   55.2795   59.5161 H   0  0  0  0  0  0  0  0  0  0  0  0
 12 13  1  0  0  0
  9 10  2  0  0  0
  9  8  1  0  0  0
  6  7  2  0  0  0
  6  8  1  0  0  0
 10 11  1  0  0  0
  7  5  1  0  0  0
 16 17  2  0  0  0
 16 18  1  0  0  0
 17 19  1  0  0  0
 18 21  2  0  0  0
 13 11  1  0  0  0
  5  4  1  0  0  0
  4  3  1  0  0  0
  3  2  1  0  0  0
  2  1  1  0  0  0
  1 14  1  0  0  0
 14 15  1  0  0  0
 15 21  1  0  0  0
 19 20  2  0  0  0
 19 22  1  0  0  0
 20 21  1  0  0  0
 20 23  1  0  0  0
 22 24  1  0  0  0
 23 25  1  0  0  0
M  END
> <minimizedAffinity>
-8.02769

> <CNNscore>
0.4672777057

> <CNNaffinity>
6.7459001541

> <CNN_VS>
3.1522088051

> <CNNaffinity_variance>
0.3135511279

$$$$
/media/chris/experiments/cd1a-new-docking/inputs/ligands/5j1a_ligand.pdb


 25 25  0  0  0  0  0  0  0  0999 V2000
  -47.2256   60.9560   60.4402 C   0  0  0  0  0  0  0  0  0  0  0  0
  -46.8294   59.6686   59.7021 C   0  0  0  0  0  0  0  0  0  0  0  0
  -47.1874   59.7716   58.2258 C   0  0  0  0  0  0  0  0  0  0  0  0
  -46.7382   58.5004   57.5046 C   0  0  0  0  0  0  0  0  0  0  0  0
  -46.1807   57.4932   58.5102 C   0  0  0  0  0  0  0  0  0  0  0  0
  -48.0237   55.6326   58.9768 C   0  0  0  0  0  0  0  0  0  0  0  0
  -46.7927   56.1277   58.1926 C   0  0  0  0  0  0  0  0  0  0  0  0
  -48.6010   56.4127   60.1679 C   0  0  0  0  0  0  0  0  0  0  0  0
  -49.7740   57.2494   59.6367 C   0  0  0  0  0  0  0  0  0  0  0  0
  -50.5551   58.2320   60.5418 C   0  0  0  0  0  0  0  0  0  0  0  0
  -50.1758   58.4523   62.0192 C   0  0  0  0  0  0  0  0  0  0  0  0
  -50.8605   59.8490   64.0214 C   0  0  0  0  0  0  0  0  0  0  0  0
  -50.9039   59.7159   62.4972 C   0  0  0  0  0  0  0  0  0  0  0  0
  -47.1974   60.8118   61.9840 C   0  0  0  0  0  0  0  0  0  0  0  0
  -46.4811   61.9863   62.6917 C   0  0  0  0  0  0  0  0  0  0  0  0
  -42.8645   62.2416   61.9106 C   0  0  0  0  0  0  0  0  0  0  0  0
  -42.2910   61.4322   62.9003 C   0  0  0  0  0  0  0  0  0  0  0  0
  -44.2528   62.4121   61.8529 C   0  0  0  0  0  0  0  0  0  0  0  0
  -43.1285   60.8068   63.8237 C   0  0  0  0  0  0  0  0  0  0  0  0
  -44.5094   60.9872   63.7653 C   0  0  0  0  0  0  0  0  0  0  0  0
  -45.0943   61.8139   62.7976 C   0  0  0  0  0  0  0  0  0  0  0  0
  -42.6531   60.0065   64.8093 O   0  0  0  0  0  0  0  0  0  0  0  0
  -45.2887   60.3616   64.6945 O   0  0  0  0  0  0  0  0  0  0  0  0
  -41.7315   59.8563   64.8872 H   0  0  0  0  0  0  0  0  0  0  0  0
  -44.8949   59.8090   65.3407 H   0  0  0  0  0  0  0  0  0  0  0  0
 12 13  1  0  0  0
  9 10  2  0  0  0
  9  8  1  0  0  0
  6  7  2  0  0  0
  6  8  1  0  0  0
 10 11  1  0  0  0
  7  5  1  0  0  0
 16 17  2  0  0  0
 16 18  1  0  0  0
 17 19  1  0  0  0
 18 21  2  0  0  0
 13 11  1  0  0  0
  5  4  1  0  0  0
  4  3  1  0  0  0
  3  2  1  0  0  0
  2  1  1  0  0  0
  1 14  1  0  0  0
 14 15  1  0  0  0
 15 21  1  0  0  0
 19 20  2  0  0  0
 19 22  1  0  0  0
 20 21  1  0  0  0
 20 23  1  0  0  0
 22 24  1  0  0  0
 23 25  1  0  0  0
M  END
> <minimizedAffinity>
-7.91160

> <CNNscore>
0.4254727662

> <CNNaffinity>
6.1675748825

> <CNN_VS>
2.6241352558

> <CNNaffinity_variance>
0.0901698619

$$$$
/media/chris/experiments/cd1a-new-docking/inputs/ligands/5j1a_ligand.pdb


 25 25  0  0  0  0  0  0  0  0999 V2000
  -50.7935   59.5466   63.3946 C   0  0  0  0  0  0  0  0  0  0  0  0
  -49.5500   59.4251   62.5013 C   0  0  0  0  0  0  0  0  0  0  0  0
  -49.9571   59.1671   61.0571 C   0  0  0  0  0  0  0  0  0  0  0  0
  -50.4482   57.7258   60.9179 C   0  0  0  0  0  0  0  0  0  0  0  0
  -50.0141   57.1491   59.5704 C   0  0  0  0  0  0  0  0  0  0  0  0
  -48.0183   55.6003   58.7371 C   0  0  0  0  0  0  0  0  0  0  0  0
  -48.9989   56.0377   59.8428 C   0  0  0  0  0  0  0  0  0  0  0  0
  -48.0972   56.1590   57.3080 C   0  0  0  0  0  0  0  0  0  0  0  0
  -46.7269   56.7718   56.9841 C   0  0  0  0  0  0  0  0  0  0  0  0
  -46.3591   58.2181   57.3939 C   0  0  0  0  0  0  0  0  0  0  0  0
  -47.3358   59.1125   58.1821 C   0  0  0  0  0  0  0  0  0  0  0  0
  -46.1446   58.3839   60.2983 C   0  0  0  0  0  0  0  0  0  0  0  0
  -46.6124   59.5725   59.4551 C   0  0  0  0  0  0  0  0  0  0  0  0
  -50.5296   60.3208   64.7121 C   0  0  0  0  0  0  0  0  0  0  0  0
  -50.5028   59.4067   65.9600 C   0  0  0  0  0  0  0  0  0  0  0  0
  -48.0063   56.6639   65.9515 C   0  0  0  0  0  0  0  0  0  0  0  0
  -46.8907   57.2785   66.5356 C   0  0  0  0  0  0  0  0  0  0  0  0
  -49.1952   57.3806   65.7710 C   0  0  0  0  0  0  0  0  0  0  0  0
  -46.9889   58.6133   66.9276 C   0  0  0  0  0  0  0  0  0  0  0  0
  -48.1732   59.3234   66.7378 C   0  0  0  0  0  0  0  0  0  0  0  0
  -49.2878   58.7296   66.1317 C   0  0  0  0  0  0  0  0  0  0  0  0
  -45.9570   59.2791   67.5018 O   0  0  0  0  0  0  0  0  0  0  0  0
  -48.2205   60.6296   67.1298 O   0  0  0  0  0  0  0  0  0  0  0  0
  -45.1414   58.8419   67.6491 H   0  0  0  0  0  0  0  0  0  0  0  0
  -47.4735   61.0244   67.5350 H   0  0  0  0  0  0  0  0  0  0  0  0
 12 13  1  0  0  0
  9 10  2  0  0  0
  9  8  1  0  0  0
  6  7  2  0  0  0
  6  8  1  0  0  0
 10 11  1  0  0  0
  7  5  1  0  0  0
 16 17  2  0  0  0
 16 18  1  0  0  0
 17 19  1  0  0  0
 18 21  2  0  0  0
 13 11  1  0  0  0
  5  4  1  0  0  0
  4  3  1  0  0  0
  3  2  1  0  0  0
  2  1  1  0  0  0
  1 14  1  0  0  0
 14 15  1  0  0  0
 15 21  1  0  0  0
 19 20  2  0  0  0
 19 22  1  0  0  0
 20 21  1  0  0  0
 20 23  1  0  0  0
 22 24  1  0  0  0
 23 25  1  0  0  0
M  END
> <minimizedAffinity>
-8.46797

> <CNNscore>
0.4084607959

> <CNNaffinity>
6.2216010094

> <CNN_VS>
2.5412800312

> <CNNaffinity_variance>
0.3332559764

$$$$
/media/chris/experiments/cd1a-new-docking/inputs/ligands/5j1a_ligand.pdb


 25 25  0  0  0  0  0  0  0  0999 V2000
  -50.7251   58.6715   62.0383 C   0  0  0  0  0  0  0  0  0  0  0  0
  -51.1635   60.0179   62.6336 C   0  0  0  0  0  0  0  0  0  0  0  0
  -50.8820   60.0536   64.1294 C   0  0  0  0  0  0  0  0  0  0  0  0
  -50.0163   58.8526   64.5119 C   0  0  0  0  0  0  0  0  0  0  0  0
  -48.7551   59.3219   65.2370 C   0  0  0  0  0  0  0  0  0  0  0  0
  -47.2190   60.0115   63.1775 C   0  0  0  0  0  0  0  0  0  0  0  0
  -48.0990   60.4059   64.3799 C   0  0  0  0  0  0  0  0  0  0  0  0
  -46.8673   58.5482   62.8683 C   0  0  0  0  0  0  0  0  0  0  0  0
  -45.3354   58.4434   62.8527 C   0  0  0  0  0  0  0  0  0  0  0  0
  -44.5166   58.2194   64.1467 C   0  0  0  0  0  0  0  0  0  0  0  0
  -45.1966   58.0530   65.5198 C   0  0  0  0  0  0  0  0  0  0  0  0
  -46.9327   56.2987   66.1001 C   0  0  0  0  0  0  0  0  0  0  0  0
  -45.4733   56.5564   65.7174 C   0  0  0  0  0  0  0  0  0  0  0  0
  -49.8564   58.8185   60.7621 C   0  0  0  0  0  0  0  0  0  0  0  0
  -49.3215   57.4673   60.2313 C   0  0  0  0  0  0  0  0  0  0  0  0
  -46.9761   59.0486   57.8326 C   0  0  0  0  0  0  0  0  0  0  0  0
  -46.5897   57.9614   57.0375 C   0  0  0  0  0  0  0  0  0  0  0  0
  -47.8836   58.8693   58.8834 C   0  0  0  0  0  0  0  0  0  0  0  0
  -47.1227   56.7032   57.3167 C   0  0  0  0  0  0  0  0  0  0  0  0
  -48.0197   56.5303   58.3695 C   0  0  0  0  0  0  0  0  0  0  0  0
  -48.3950   57.6029   59.1886 C   0  0  0  0  0  0  0  0  0  0  0  0
  -46.8020   55.6021   56.5939 O   0  0  0  0  0  0  0  0  0  0  0  0
  -48.5095   55.2797   58.6104 O   0  0  0  0  0  0  0  0  0  0  0  0
  -46.2029   55.6708   55.8767 H   0  0  0  0  0  0  0  0  0  0  0  0
  -48.2569   54.5639   58.0609 H   0  0  0  0  0  0  0  0  0  0  0  0
 12 13  1  0  0  0
  9 10  2  0  0  0
  9  8  1  0  0  0
  6  7  2  0  0  0
  6  8  1  0  0  0
 10 11  1  0  0  0
  7  5  1  0  0  0
 16 17  2  0  0  0
 16 18  1  0  0  0
 17 19  1  0  0  0
 18 21  2  0  0  0
 13 11  1  0  0  0
  5  4  1  0  0  0
  4  3  1  0  0  0
  3  2  1  0  0  0
  2  1  1  0  0  0
  1 14  1  0  0  0
 14 15  1  0  0  0
 15 21  1  0  0  0
 19 20  2  0  0  0
 19 22  1  0  0  0
 20 21  1  0  0  0
 20 23  1  0  0  0
 22 24  1  0  0  0
 23 25  1  0  0  0
M  END
> <minimizedAffinity>
-7.65090

> <CNNscore>
0.3716769516

> <CNNaffinity>
6.7966475487

> <CNN_VS>
2.5261571407

> <CNNaffinity_variance>
0.1229487434

$$$$
/media/chris/experiments/cd1a-new-docking/inputs/ligands/5j1a_ligand.pdb


 25 25  0  0  0  0  0  0  0  0999 V2000
  -47.6006   61.0311   60.7304 C   0  0  0  0  0  0  0  0  0  0  0  0
  -46.5832   60.2125   61.5391 C   0  0  0  0  0  0  0  0  0  0  0  0
  -45.8076   61.1171   62.4869 C   0  0  0  0  0  0  0  0  0  0  0  0
  -46.7020   61.5039   63.6652 C   0  0  0  0  0  0  0  0  0  0  0  0
  -47.1857   60.2498   64.3933 C   0  0  0  0  0  0  0  0  0  0  0  0
  -49.5353   59.9455   65.6028 C   0  0  0  0  0  0  0  0  0  0  0  0
  -48.1918   60.6871   65.4594 C   0  0  0  0  0  0  0  0  0  0  0  0
  -49.9677   58.8426   64.6245 C   0  0  0  0  0  0  0  0  0  0  0  0
  -50.6710   59.5316   63.4461 C   0  0  0  0  0  0  0  0  0  0  0  0
  -50.4887   59.0481   61.9873 C   0  0  0  0  0  0  0  0  0  0  0  0
  -49.6184   57.8246   61.6397 C   0  0  0  0  0  0  0  0  0  0  0  0
  -50.5001   57.9669   59.2667 C   0  0  0  0  0  0  0  0  0  0  0  0
  -50.3157   57.0745   60.4966 C   0  0  0  0  0  0  0  0  0  0  0  0
  -47.8862   60.4399   59.3255 C   0  0  0  0  0  0  0  0  0  0  0  0
  -46.6871   59.6576   58.7394 C   0  0  0  0  0  0  0  0  0  0  0  0
  -48.0061   57.2317   56.2633 C   0  0  0  0  0  0  0  0  0  0  0  0
  -47.8824   56.0151   56.9474 C   0  0  0  0  0  0  0  0  0  0  0  0
  -47.6093   58.4286   56.8713 C   0  0  0  0  0  0  0  0  0  0  0  0
  -47.3547   56.0221   58.2384 C   0  0  0  0  0  0  0  0  0  0  0  0
  -46.9543   57.2166   58.8348 C   0  0  0  0  0  0  0  0  0  0  0  0
  -47.0481   58.4368   58.1533 C   0  0  0  0  0  0  0  0  0  0  0  0
  -47.2047   54.8892   58.9675 O   0  0  0  0  0  0  0  0  0  0  0  0
  -46.4365   57.1740   60.0966 O   0  0  0  0  0  0  0  0  0  0  0  0
  -47.4604   54.0629   58.6071 H   0  0  0  0  0  0  0  0  0  0  0  0
  -46.3749   56.3565   60.5503 H   0  0  0  0  0  0  0  0  0  0  0  0
 12 13  1  0  0  0
  9 10  2  0  0  0
  9  8  1  0  0  0
  6  7  2  0  0  0
  6  8  1  0  0  0
 10 11  1  0  0  0
  7  5  1  0  0  0
 16 17  2  0  0  0
 16 18  1  0  0  0
 17 19  1  0  0  0
 18 21  2  0  0  0
 13 11  1  0  0  0
  5  4  1  0  0  0
  4  3  1  0  0  0
  3  2  1  0  0  0
  2  1  1  0  0  0
  1 14  1  0  0  0
 14 15  1  0  0  0
 15 21  1  0  0  0
 19 20  2  0  0  0
 19 22  1  0  0  0
 20 21  1  0  0  0
 20 23  1  0  0  0
 22 24  1  0  0  0
 23 25  1  0  0  0
M  END
> <minimizedAffinity>
-7.73518

> <CNNscore>
0.3590145409

> <CNNaffinity>
6.5446572304

> <CNN_VS>
2.3496270180

> <CNNaffinity_variance>
0.0722746998

$$$$
/media/chris/experiments/cd1a-new-docking/inputs/ligands/5j1a_ligand.pdb


 25 25  0  0  0  0  0  0  0  0999 V2000
  -46.5387   59.6027   61.6705 C   0  0  0  0  0  0  0  0  0  0  0  0
  -45.7407   60.7144   62.3680 C   0  0  0  0  0  0  0  0  0  0  0  0
  -46.5309   61.2793   63.5405 C   0  0  0  0  0  0  0  0  0  0  0  0
  -46.0796   60.5973   64.8325 C   0  0  0  0  0  0  0  0  0  0  0  0
  -47.1046   59.5468   65.2595 C   0  0  0  0  0  0  0  0  0  0  0  0
  -49.5070   59.8079   66.3717 C   0  0  0  0  0  0  0  0  0  0  0  0
  -48.0127   60.1814   66.3143 C   0  0  0  0  0  0  0  0  0  0  0  0
  -50.1626   58.9001   65.3197 C   0  0  0  0  0  0  0  0  0  0  0  0
  -50.8435   59.8152   64.2916 C   0  0  0  0  0  0  0  0  0  0  0  0
  -50.7692   59.5366   62.7712 C   0  0  0  0  0  0  0  0  0  0  0  0
  -50.0371   58.3038   62.2059 C   0  0  0  0  0  0  0  0  0  0  0  0
  -50.1268   56.7073   60.2383 C   0  0  0  0  0  0  0  0  0  0  0  0
  -50.8934   57.7458   61.0609 C   0  0  0  0  0  0  0  0  0  0  0  0
  -45.7467   58.8952   60.5404 C   0  0  0  0  0  0  0  0  0  0  0  0
  -46.2749   57.4760   60.2239 C   0  0  0  0  0  0  0  0  0  0  0  0
  -47.2138   58.3268   56.7382 C   0  0  0  0  0  0  0  0  0  0  0  0
  -47.6273   57.0870   56.2330 C   0  0  0  0  0  0  0  0  0  0  0  0
  -46.7723   58.4397   58.0619 C   0  0  0  0  0  0  0  0  0  0  0  0
  -47.5861   55.9734   57.0717 C   0  0  0  0  0  0  0  0  0  0  0  0
  -47.1378   56.0914   58.3862 C   0  0  0  0  0  0  0  0  0  0  0  0
  -46.6971   57.3190   58.8968 C   0  0  0  0  0  0  0  0  0  0  0  0
  -47.9709   54.7403   56.6606 O   0  0  0  0  0  0  0  0  0  0  0  0
  -47.1075   54.9732   59.1677 O   0  0  0  0  0  0  0  0  0  0  0  0
  -48.2794   54.6135   55.7849 H   0  0  0  0  0  0  0  0  0  0  0  0
  -47.4030   54.1531   58.8238 H   0  0  0  0  0  0  0  0  0  0  0  0
 12 13  1  0  0  0
  9 10  2  0  0  0
  9  8  1  0  0  0
  6  7  2  0  0  0
  6  8  1  0  0  0
 10 11  1  0  0  0
  7  5  1  0  0  0
 16 17  2  0  0  0
 16 18  1  0  0  0
 17 19  1  0  0  0
 18 21  2  0  0  0
 13 11  1  0  0  0
  5  4  1  0  0  0
  4  3  1  0  0  0
  3  2  1  0  0  0
  2  1  1  0  0  0
  1 14  1  0  0  0
 14 15  1  0  0  0
 15 21  1  0  0  0
 19 20  2  0  0  0
 19 22  1  0  0  0
 20 21  1  0  0  0
 20 23  1  0  0  0
 22 24  1  0  0  0
 23 25  1  0  0  0
M  END
> <minimizedAffinity>
-8.24353

> <CNNscore>
0.3354975581

> <CNNaffinity>
6.5870389938

> <CNN_VS>
2.2099354267

> <CNNaffinity_variance>
0.0147242267

$$$$
