/media/chris/experiments/cd1a-new-docking/inputs/ligands/5j1a_ligand.pdb


 25 25  0  0  0  0  0  0  0  0999 V2000
  -48.0776   55.7626   59.1008 C   0  0  0  0  0  0  0  0  0  0  0  0
  -49.1769   56.0476   60.1349 C   0  0  0  0  0  0  0  0  0  0  0  0
  -49.9773   57.2788   59.7330 C   0  0  0  0  0  0  0  0  0  0  0  0
  -50.7415   57.8063   60.9478 C   0  0  0  0  0  0  0  0  0  0  0  0
  -49.9338   58.9020   61.6432 C   0  0  0  0  0  0  0  0  0  0  0  0
  -50.9104   59.7705   63.9601 C   0  0  0  0  0  0  0  0  0  0  0  0
  -50.9137   59.7842   62.4190 C   0  0  0  0  0  0  0  0  0  0  0  0
  -50.0316   58.8017   64.7663 C   0  0  0  0  0  0  0  0  0  0  0  0
  -49.8106   59.4330   66.1486 C   0  0  0  0  0  0  0  0  0  0  0  0
  -48.4759   60.1150   66.5335 C   0  0  0  0  0  0  0  0  0  0  0  0
  -47.3055   60.2302   65.5374 C   0  0  0  0  0  0  0  0  0  0  0  0
  -46.1585   58.1322   64.6940 C   0  0  0  0  0  0  0  0  0  0  0  0
  -46.3117   59.1071   65.8640 C   0  0  0  0  0  0  0  0  0  0  0  0
  -47.7958   56.9613   58.1582 C   0  0  0  0  0  0  0  0  0  0  0  0
  -46.4598   57.6775   58.4676 C   0  0  0  0  0  0  0  0  0  0  0  0
  -47.6023   61.0545   59.4905 C   0  0  0  0  0  0  0  0  0  0  0  0
  -46.8969   61.2555   60.6844 C   0  0  0  0  0  0  0  0  0  0  0  0
  -47.4441   59.8665   58.7669 C   0  0  0  0  0  0  0  0  0  0  0  0
  -46.0415   60.2504   61.1356 C   0  0  0  0  0  0  0  0  0  0  0  0
  -45.8947   59.0668   60.4142 C   0  0  0  0  0  0  0  0  0  0  0  0
  -46.6130   58.8414   59.2329 C   0  0  0  0  0  0  0  0  0  0  0  0
  -45.3222   60.3682   62.2784 O   0  0  0  0  0  0  0  0  0  0  0  0
  -45.0527   58.1084   60.8981 O   0  0  0  0  0  0  0  0  0  0  0  0
  -45.3890   61.1465   62.7960 H   0  0  0  0  0  0  0  0  0  0  0  0
  -44.5733   58.2616   61.6884 H   0  0  0  0  0  0  0  0  0  0  0  0
 12 13  1  0  0  0
  9 10  2  0  0  0
  9  8  1  0  0  0
  6  7  2  0  0  0
  6  8  1  0  0  0
 10 11  1  0  0  0
  7  5  1  0  0  0
 16 17  2  0  0  0
 16 18  1  0  0  0
 17 19  1  0  0  0
 18 21  2  0  0  0
 13 11  1  0  0  0
  5  4  1  0  0  0
  4  3  1  0  0  0
  3  2  1  0  0  0
  2  1  1  0  0  0
  1 14  1  0  0  0
 14 15  1  0  0  0
 15 21  1  0  0  0
 19 20  2  0  0  0
 19 22  1  0  0  0
 20 21  1  0  0  0
 20 23  1  0  0  0
 22 24  1  0  0  0
 23 25  1  0  0  0
M  END
> <minimizedAffinity>
-7.92622

> <CNNscore>
0.6081401110

> <CNNaffinity>
6.6064887047

> <CNN_VS>
4.0176706314

> <CNNaffinity_variance>
0.2298122346

$$$$
/media/chris/experiments/cd1a-new-docking/inputs/ligands/5j1a_ligand.pdb


 25 25  0  0  0  0  0  0  0  0999 V2000
  -46.1344   58.8138   66.7438 C   0  0  0  0  0  0  0  0  0  0  0  0
  -47.5523   59.3939   66.6345 C   0  0  0  0  0  0  0  0  0  0  0  0
  -48.5352   58.3150   66.2010 C   0  0  0  0  0  0  0  0  0  0  0  0
  -49.9421   58.9096   66.1280 C   0  0  0  0  0  0  0  0  0  0  0  0
  -49.9345   60.1774   65.2742 C   0  0  0  0  0  0  0  0  0  0  0  0
  -51.0512   59.7708   62.8943 C   0  0  0  0  0  0  0  0  0  0  0  0
  -51.1776   60.1484   64.3831 C   0  0  0  0  0  0  0  0  0  0  0  0
  -49.6886   59.5346   62.2246 C   0  0  0  0  0  0  0  0  0  0  0  0
  -49.6574   60.3859   60.9469 C   0  0  0  0  0  0  0  0  0  0  0  0
  -49.0423   59.8606   59.6278 C   0  0  0  0  0  0  0  0  0  0  0  0
  -48.4582   58.4390   59.5131 C   0  0  0  0  0  0  0  0  0  0  0  0
  -49.5043   56.1966   60.0662 C   0  0  0  0  0  0  0  0  0  0  0  0
  -49.6275   57.4819   59.2442 C   0  0  0  0  0  0  0  0  0  0  0  0
  -45.0404   59.7555   66.1770 C   0  0  0  0  0  0  0  0  0  0  0  0
  -44.6131   59.3931   64.7350 C   0  0  0  0  0  0  0  0  0  0  0  0
  -46.4416   61.6706   62.4492 C   0  0  0  0  0  0  0  0  0  0  0  0
  -45.3991   62.4043   61.8675 C   0  0  0  0  0  0  0  0  0  0  0  0
  -46.1647   60.6753   63.3939 C   0  0  0  0  0  0  0  0  0  0  0  0
  -44.0874   62.1255   62.2508 C   0  0  0  0  0  0  0  0  0  0  0  0
  -43.8194   61.1384   63.1978 C   0  0  0  0  0  0  0  0  0  0  0  0
  -44.8531   60.4152   63.8066 C   0  0  0  0  0  0  0  0  0  0  0  0
  -43.0236   62.7877   61.7338 O   0  0  0  0  0  0  0  0  0  0  0  0
  -42.5212   60.9057   63.5478 O   0  0  0  0  0  0  0  0  0  0  0  0
  -43.1558   63.4595   61.0941 H   0  0  0  0  0  0  0  0  0  0  0  0
  -41.8317   61.3908   63.1391 H   0  0  0  0  0  0  0  0  0  0  0  0
 12 13  1  0  0  0
  9 10  2  0  0  0
  9  8  1  0  0  0
  6  7  2  0  0  0
  6  8  1  0  0  0
 10 11  1  0  0  0
  7  5  1  0  0  0
 16 17  2  0  0  0
 16 18  1  0  0  0
 17 19  1  0  0  0
 18 21  2  0  0  0
 13 11  1  0  0  0
  5  4  1  0  0  0
  4  3  1  0  0  0
  3  2  1  0  0  0
  2  1  1  0  0  0
  1 14  1  0  0  0
 14 15  1  0  0  0
 15 21  1  0  0  0
 19 20  2  0  0  0
 19 22  1  0  0  0
 20 21  1  0  0  0
 20 23  1  0  0  0
 22 24  1  0  0  0
 23 25  1  0  0  0
M  END
> <minimizedAffinity>
-7.22080

> <CNNscore>
0.5921899080

> <CNNaffinity>
6.5031232834

> <CNN_VS>
3.8510839939

> <CNNaffinity_variance>
0.3227469325

$$$$
/media/chris/experiments/cd1a-new-docking/inputs/ligands/5j1a_ligand.pdb


 25 25  0  0  0  0  0  0  0  0999 V2000
  -48.5495   60.0313   65.7918 C   0  0  0  0  0  0  0  0  0  0  0  0
  -49.8925   59.3121   65.5967 C   0  0  0  0  0  0  0  0  0  0  0  0
  -49.9711   58.7034   64.2034 C   0  0  0  0  0  0  0  0  0  0  0  0
  -50.8484   59.5843   63.3132 C   0  0  0  0  0  0  0  0  0  0  0  0
  -50.4107   59.4600   61.8540 C   0  0  0  0  0  0  0  0  0  0  0  0
  -50.1299   57.5379   60.0365 C   0  0  0  0  0  0  0  0  0  0  0  0
  -50.4536   57.9778   61.4777 C   0  0  0  0  0  0  0  0  0  0  0  0
  -49.8787   58.5522   58.9101 C   0  0  0  0  0  0  0  0  0  0  0  0
  -48.5746   58.1406   58.2115 C   0  0  0  0  0  0  0  0  0  0  0  0
  -47.1962   58.6733   58.6707 C   0  0  0  0  0  0  0  0  0  0  0  0
  -47.0522   59.6196   59.8787 C   0  0  0  0  0  0  0  0  0  0  0  0
  -45.2552   58.3377   61.1260 C   0  0  0  0  0  0  0  0  0  0  0  0
  -46.7278   58.7546   61.1043 C   0  0  0  0  0  0  0  0  0  0  0  0
  -47.5118   59.7044   64.6868 C   0  0  0  0  0  0  0  0  0  0  0  0
  -46.1030   60.2677   64.9895 C   0  0  0  0  0  0  0  0  0  0  0  0
  -45.8963   62.6120   62.1229 C   0  0  0  0  0  0  0  0  0  0  0  0
  -44.5538   62.4920   61.7398 C   0  0  0  0  0  0  0  0  0  0  0  0
  -46.3944   61.8666   63.1982 C   0  0  0  0  0  0  0  0  0  0  0  0
  -43.7284   61.6216   62.4514 C   0  0  0  0  0  0  0  0  0  0  0  0
  -44.2290   60.8883   63.5259 C   0  0  0  0  0  0  0  0  0  0  0  0
  -45.5620   61.0176   63.9363 C   0  0  0  0  0  0  0  0  0  0  0  0
  -42.4201   61.4467   62.1428 O   0  0  0  0  0  0  0  0  0  0  0  0
  -43.3825   60.0550   64.1975 O   0  0  0  0  0  0  0  0  0  0  0  0
  -42.0401   61.9188   61.4281 H   0  0  0  0  0  0  0  0  0  0  0  0
  -42.4913   59.9703   63.9210 H   0  0  0  0  0  0  0  0  0  0  0  0
 12 13  1  0  0  0
  9 10  2  0  0  0
  9  8  1  0  0  0
  6  7  2  0  0  0
  6  8  1  0  0  0
 10 11  1  0  0  0
  7  5  1  0  0  0
 16 17  2  0  0  0
 16 18  1  0  0  0
 17 19  1  0  0  0
 18 21  2  0  0  0
 13 11  1  0  0  0
  5  4  1  0  0  0
  4  3  1  0  0  0
  3  2  1  0  0  0
  2  1  1  0  0  0
  1 14  1  0  0  0
 14 15  1  0  0  0
 15 21  1  0  0  0
 19 20  2  0  0  0
 19 22  1  0  0  0
 20 21  1  0  0  0
 20 23  1  0  0  0
 22 24  1  0  0  0
 23 25  1  0  0  0
M  END
> <minimizedAffinity>
-7.40993

> <CNNscore>
0.4211365283

> <CNNaffinity>
6.2001633644

> <CNN_VS>
2.6111152172

> <CNNaffinity_variance>
0.2729442120

$$$$
/media/chris/experiments/cd1a-new-docking/inputs/ligands/5j1a_ligand.pdb


 25 25  0  0  0  0  0  0  0  0999 V2000
  -49.2337   56.9448   59.2742 C   0  0  0  0  0  0  0  0  0  0  0  0
  -50.3581   57.2013   60.2885 C   0  0  0  0  0  0  0  0  0  0  0  0
  -49.7839   57.7344   61.5940 C   0  0  0  0  0  0  0  0  0  0  0  0
  -50.8264   58.6132   62.2858 C   0  0  0  0  0  0  0  0  0  0  0  0
  -50.1398   59.7582   63.0301 C   0  0  0  0  0  0  0  0  0  0  0  0
  -50.7215   59.6913   65.6250 C   0  0  0  0  0  0  0  0  0  0  0  0
  -51.0434   60.1671   64.1949 C   0  0  0  0  0  0  0  0  0  0  0  0
  -49.5795   58.7068   65.9204 C   0  0  0  0  0  0  0  0  0  0  0  0
  -48.3221   59.5419   66.2026 C   0  0  0  0  0  0  0  0  0  0  0  0
  -47.0248   58.9069   66.7577 C   0  0  0  0  0  0  0  0  0  0  0  0
  -46.9110   57.3932   67.0250 C   0  0  0  0  0  0  0  0  0  0  0  0
  -45.4114   57.8580   65.0340 C   0  0  0  0  0  0  0  0  0  0  0  0
  -46.1100   56.7810   65.8677 C   0  0  0  0  0  0  0  0  0  0  0  0
  -48.9943   58.1347   58.3090 C   0  0  0  0  0  0  0  0  0  0  0  0
  -47.4950   58.4404   58.0803 C   0  0  0  0  0  0  0  0  0  0  0  0
  -45.4589   58.4843   61.1799 C   0  0  0  0  0  0  0  0  0  0  0  0
  -45.5737   59.8194   61.5895 C   0  0  0  0  0  0  0  0  0  0  0  0
  -46.1036   58.0429   60.0182 C   0  0  0  0  0  0  0  0  0  0  0  0
  -46.3367   60.6948   60.8169 C   0  0  0  0  0  0  0  0  0  0  0  0
  -46.9695   60.2504   59.6572 C   0  0  0  0  0  0  0  0  0  0  0  0
  -46.8423   58.9252   59.2217 C   0  0  0  0  0  0  0  0  0  0  0  0
  -46.4994   61.9998   61.1457 O   0  0  0  0  0  0  0  0  0  0  0  0
  -47.6990   61.1444   58.9289 O   0  0  0  0  0  0  0  0  0  0  0  0
  -46.0926   62.3429   61.9169 H   0  0  0  0  0  0  0  0  0  0  0  0
  -47.7826   62.0303   59.2223 H   0  0  0  0  0  0  0  0  0  0  0  0
 12 13  1  0  0  0
  9 10  2  0  0  0
  9  8  1  0  0  0
  6  7  2  0  0  0
  6  8  1  0  0  0
 10 11  1  0  0  0
  7  5  1  0  0  0
 16 17  2  0  0  0
 16 18  1  0  0  0
 17 19  1  0  0  0
 18 21  2  0  0  0
 13 11  1  0  0  0
  5  4  1  0  0  0
  4  3  1  0  0  0
  3  2  1  0  0  0
  2  1  1  0  0  0
  1 14  1  0  0  0
 14 15  1  0  0  0
 15 21  1  0  0  0
 19 20  2  0  0  0
 19 22  1  0  0  0
 20 21  1  0  0  0
 20 23  1  0  0  0
 22 24  1  0  0  0
 23 25  1  0  0  0
M  END
> <minimizedAffinity>
-7.83821

> <CNNscore>
0.4189289808

> <CNNaffinity>
6.4841437340

> <CNN_VS>
2.7163956165

> <CNNaffinity_variance>
0.4940971434

$$$$
/media/chris/experiments/cd1a-new-docking/inputs/ligands/5j1a_ligand.pdb


 25 25  0  0  0  0  0  0  0  0999 V2000
  -47.7092   56.5850   65.9890 C   0  0  0  0  0  0  0  0  0  0  0  0
  -48.3783   57.9341   66.2910 C   0  0  0  0  0  0  0  0  0  0  0  0
  -49.8460   57.9008   65.8873 C   0  0  0  0  0  0  0  0  0  0  0  0
  -50.3801   59.3306   65.7964 C   0  0  0  0  0  0  0  0  0  0  0  0
  -49.9630   59.9654   64.4699 C   0  0  0  0  0  0  0  0  0  0  0  0
  -50.9256   58.9592   62.2034 C   0  0  0  0  0  0  0  0  0  0  0  0
  -51.1205   59.7931   63.4847 C   0  0  0  0  0  0  0  0  0  0  0  0
  -49.5585   58.3821   61.8047 C   0  0  0  0  0  0  0  0  0  0  0  0
  -49.7112   57.7838   60.3987 C   0  0  0  0  0  0  0  0  0  0  0  0
  -49.1144   58.4707   59.1471 C   0  0  0  0  0  0  0  0  0  0  0  0
  -48.3020   59.7767   59.2468 C   0  0  0  0  0  0  0  0  0  0  0  0
  -46.6348   58.2122   58.1509 C   0  0  0  0  0  0  0  0  0  0  0  0
  -47.1204   59.6584   58.2743 C   0  0  0  0  0  0  0  0  0  0  0  0
  -46.1607   56.6618   65.9541 C   0  0  0  0  0  0  0  0  0  0  0  0
  -45.6301   58.0497   65.5230 C   0  0  0  0  0  0  0  0  0  0  0  0
  -45.9226   58.6363   61.8726 C   0  0  0  0  0  0  0  0  0  0  0  0
  -44.6765   58.2005   61.4029 C   0  0  0  0  0  0  0  0  0  0  0  0
  -46.2240   58.5767   63.2384 C   0  0  0  0  0  0  0  0  0  0  0  0
  -43.7469   57.7124   62.3210 C   0  0  0  0  0  0  0  0  0  0  0  0
  -44.0507   57.6632   63.6805 C   0  0  0  0  0  0  0  0  0  0  0  0
  -45.2824   58.1195   64.1672 C   0  0  0  0  0  0  0  0  0  0  0  0
  -42.5213   57.2696   61.9475 O   0  0  0  0  0  0  0  0  0  0  0  0
  -43.1072   57.1852   64.5426 O   0  0  0  0  0  0  0  0  0  0  0  0
  -42.2733   57.2839   61.0440 H   0  0  0  0  0  0  0  0  0  0  0  0
  -42.2842   56.8806   64.2145 H   0  0  0  0  0  0  0  0  0  0  0  0
 12 13  1  0  0  0
  9 10  2  0  0  0
  9  8  1  0  0  0
  6  7  2  0  0  0
  6  8  1  0  0  0
 10 11  1  0  0  0
  7  5  1  0  0  0
 16 17  2  0  0  0
 16 18  1  0  0  0
 17 19  1  0  0  0
 18 21  2  0  0  0
 13 11  1  0  0  0
  5  4  1  0  0  0
  4  3  1  0  0  0
  3  2  1  0  0  0
  2  1  1  0  0  0
  1 14  1  0  0  0
 14 15  1  0  0  0
 15 21  1  0  0  0
 19 20  2  0  0  0
 19 22  1  0  0  0
 20 21  1  0  0  0
 20 23  1  0  0  0
 22 24  1  0  0  0
 23 25  1  0  0  0
M  END
> <minimizedAffinity>
-7.51609

> <CNNscore>
0.3694235086

> <CNNaffinity>
6.4359040260

> <CNN_VS>
2.3775742054

> <CNNaffinity_variance>
0.3236817420

$$$$
/media/chris/experiments/cd1a-new-docking/inputs/ligands/5j1a_ligand.pdb


 25 25  0  0  0  0  0  0  0  0999 V2000
  -50.4197   57.1862   60.0059 C   0  0  0  0  0  0  0  0  0  0  0  0
  -49.1400   56.3400   60.0790 C   0  0  0  0  0  0  0  0  0  0  0  0
  -48.2893   56.5557   58.8348 C   0  0  0  0  0  0  0  0  0  0  0  0
  -48.7689   57.8097   58.1030 C   0  0  0  0  0  0  0  0  0  0  0  0
  -47.7141   58.9118   58.1998 C   0  0  0  0  0  0  0  0  0  0  0  0
  -47.4191   60.3147   60.4406 C   0  0  0  0  0  0  0  0  0  0  0  0
  -48.2310   59.9692   59.1771 C   0  0  0  0  0  0  0  0  0  0  0  0
  -46.1489   59.5434   60.8313 C   0  0  0  0  0  0  0  0  0  0  0  0
  -45.8696   59.8488   62.3101 C   0  0  0  0  0  0  0  0  0  0  0  0
  -45.1376   61.1371   62.7561 C   0  0  0  0  0  0  0  0  0  0  0  0
  -44.6793   62.2037   61.7423 C   0  0  0  0  0  0  0  0  0  0  0  0
  -42.6832   61.7049   63.2239 C   0  0  0  0  0  0  0  0  0  0  0  0
  -43.1937   62.4827   62.0085 C   0  0  0  0  0  0  0  0  0  0  0  0
  -50.7357   57.9366   61.3257 C   0  0  0  0  0  0  0  0  0  0  0  0
  -49.5655   57.9075   62.3373 C   0  0  0  0  0  0  0  0  0  0  0  0
  -51.1771   60.2649   64.7039 C   0  0  0  0  0  0  0  0  0  0  0  0
  -50.3555   60.1566   65.8338 C   0  0  0  0  0  0  0  0  0  0  0  0
  -50.9003   59.5165   63.5536 C   0  0  0  0  0  0  0  0  0  0  0  0
  -49.2643   59.2890   65.7889 C   0  0  0  0  0  0  0  0  0  0  0  0
  -48.9990   58.5410   64.6431 C   0  0  0  0  0  0  0  0  0  0  0  0
  -49.8266   58.6197   63.5157 C   0  0  0  0  0  0  0  0  0  0  0  0
  -48.4205   59.1290   66.8377 O   0  0  0  0  0  0  0  0  0  0  0  0
  -47.9250   57.6994   64.6478 O   0  0  0  0  0  0  0  0  0  0  0  0
  -48.5598   59.6114   67.6289 H   0  0  0  0  0  0  0  0  0  0  0  0
  -47.3730   57.6486   65.4032 H   0  0  0  0  0  0  0  0  0  0  0  0
 12 13  1  0  0  0
  9 10  2  0  0  0
  9  8  1  0  0  0
  6  7  2  0  0  0
  6  8  1  0  0  0
 10 11  1  0  0  0
  7  5  1  0  0  0
 16 17  2  0  0  0
 16 18  1  0  0  0
 17 19  1  0  0  0
 18 21  2  0  0  0
 13 11  1  0  0  0
  5  4  1  0  0  0
  4  3  1  0  0  0
  3  2  1  0  0  0
  2  1  1  0  0  0
  1 14  1  0  0  0
 14 15  1  0  0  0
 15 21  1  0  0  0
 19 20  2  0  0  0
 19 22  1  0  0  0
 20 21  1  0  0  0
 20 23  1  0  0  0
 22 24  1  0  0  0
 23 25  1  0  0  0
M  END
> <minimizedAffinity>
-7.57343

> <CNNscore>
0.3634403050

> <CNNaffinity>
6.4700365067

> <CNN_VS>
2.3514721394

> <CNNaffinity_variance>
0.0432242006

$$$$
/media/chris/experiments/cd1a-new-docking/inputs/ligands/5j1a_ligand.pdb


 25 25  0  0  0  0  0  0  0  0999 V2000
  -48.7247   59.8440   66.3992 C   0  0  0  0  0  0  0  0  0  0  0  0
  -49.1732   58.4261   66.0150 C   0  0  0  0  0  0  0  0  0  0  0  0
  -50.1722   58.4782   64.8673 C   0  0  0  0  0  0  0  0  0  0  0  0
  -50.2141   59.8953   64.2946 C   0  0  0  0  0  0  0  0  0  0  0  0
  -50.9746   59.9053   62.9687 C   0  0  0  0  0  0  0  0  0  0  0  0
  -49.7898   58.7785   60.8704 C   0  0  0  0  0  0  0  0  0  0  0  0
  -50.5745   58.6504   62.1906 C   0  0  0  0  0  0  0  0  0  0  0  0
  -49.4906   60.1414   60.2273 C   0  0  0  0  0  0  0  0  0  0  0  0
  -48.0221   60.4734   60.5302 C   0  0  0  0  0  0  0  0  0  0  0  0
  -46.8891   60.1706   59.5207 C   0  0  0  0  0  0  0  0  0  0  0  0
  -47.1761   59.5510   58.1390 C   0  0  0  0  0  0  0  0  0  0  0  0
  -45.9419   57.7679   59.4527 C   0  0  0  0  0  0  0  0  0  0  0  0
  -46.4285   58.2123   58.0712 C   0  0  0  0  0  0  0  0  0  0  0  0
  -47.1862   59.9863   66.5323 C   0  0  0  0  0  0  0  0  0  0  0  0
  -46.5126   58.7444   67.1627 C   0  0  0  0  0  0  0  0  0  0  0  0
  -43.1223   59.0930   65.7000 C   0  0  0  0  0  0  0  0  0  0  0  0
  -42.8558   57.7901   65.2588 C   0  0  0  0  0  0  0  0  0  0  0  0
  -44.3384   59.3933   66.3251 C   0  0  0  0  0  0  0  0  0  0  0  0
  -43.8216   56.8037   65.4582 C   0  0  0  0  0  0  0  0  0  0  0  0
  -45.0271   57.1080   66.0883 C   0  0  0  0  0  0  0  0  0  0  0  0
  -45.2963   58.4000   66.5577 C   0  0  0  0  0  0  0  0  0  0  0  0
  -43.6422   55.5208   65.0587 O   0  0  0  0  0  0  0  0  0  0  0  0
  -45.9389   56.1090   66.2688 O   0  0  0  0  0  0  0  0  0  0  0  0
  -42.8472   55.2701   64.6308 H   0  0  0  0  0  0  0  0  0  0  0  0
  -45.7564   55.2456   65.9539 H   0  0  0  0  0  0  0  0  0  0  0  0
 12 13  1  0  0  0
  9 10  2  0  0  0
  9  8  1  0  0  0
  6  7  2  0  0  0
  6  8  1  0  0  0
 10 11  1  0  0  0
  7  5  1  0  0  0
 16 17  2  0  0  0
 16 18  1  0  0  0
 17 19  1  0  0  0
 18 21  2  0  0  0
 13 11  1  0  0  0
  5  4  1  0  0  0
  4  3  1  0  0  0
  3  2  1  0  0  0
  2  1  1  0  0  0
  1 14  1  0  0  0
 14 15  1  0  0  0
 15 21  1  0  0  0
 19 20  2  0  0  0
 19 22  1  0  0  0
 20 21  1  0  0  0
 20 23  1  0  0  0
 22 24  1  0  0  0
 23 25  1  0  0  0
M  END
> <minimizedAffinity>
-7.97569

> <CNNscore>
0.3617320359

> <CNNaffinity>
6.3400831223

> <CNN_VS>
2.2934112549

> <CNNaffinity_variance>
0.6232618093

$$$$
/media/chris/experiments/cd1a-new-docking/inputs/ligands/5j1a_ligand.pdb


 25 25  0  0  0  0  0  0  0  0999 V2000
  -50.8998   59.2206   62.3099 C   0  0  0  0  0  0  0  0  0  0  0  0
  -51.1771   60.1430   63.5062 C   0  0  0  0  0  0  0  0  0  0  0  0
  -49.9804   60.1660   64.4472 C   0  0  0  0  0  0  0  0  0  0  0  0
  -50.3194   59.3876   65.7189 C   0  0  0  0  0  0  0  0  0  0  0  0
  -49.0497   58.7907   66.3254 C   0  0  0  0  0  0  0  0  0  0  0  0
  -47.6565   56.5308   66.1584 C   0  0  0  0  0  0  0  0  0  0  0  0
  -48.8554   57.3970   65.7254 C   0  0  0  0  0  0  0  0  0  0  0  0
  -46.5602   57.0630   67.0942 C   0  0  0  0  0  0  0  0  0  0  0  0
  -45.2814   57.2107   66.2569 C   0  0  0  0  0  0  0  0  0  0  0  0
  -44.8723   58.5593   65.6178 C   0  0  0  0  0  0  0  0  0  0  0  0
  -45.7080   59.8391   65.8161 C   0  0  0  0  0  0  0  0  0  0  0  0
  -46.4192   59.8415   63.3825 C   0  0  0  0  0  0  0  0  0  0  0  0
  -45.6913   60.6092   64.4885 C   0  0  0  0  0  0  0  0  0  0  0  0
  -49.5884   59.5673   61.5582 C   0  0  0  0  0  0  0  0  0  0  0  0
  -49.6713   59.3022   60.0363 C   0  0  0  0  0  0  0  0  0  0  0  0
  -46.3842   58.6723   58.4381 C   0  0  0  0  0  0  0  0  0  0  0  0
  -46.3371   57.2724   58.4019 C   0  0  0  0  0  0  0  0  0  0  0  0
  -47.4960   59.3289   58.9790 C   0  0  0  0  0  0  0  0  0  0  0  0
  -47.4142   56.5514   58.9171 C   0  0  0  0  0  0  0  0  0  0  0  0
  -48.5146   57.2116   59.4614 C   0  0  0  0  0  0  0  0  0  0  0  0
  -48.5639   58.6099   59.5278 C   0  0  0  0  0  0  0  0  0  0  0  0
  -47.4471   55.1963   58.9173 O   0  0  0  0  0  0  0  0  0  0  0  0
  -49.5417   56.4648   59.9608 O   0  0  0  0  0  0  0  0  0  0  0  0
  -46.7294   54.7102   58.5616 H   0  0  0  0  0  0  0  0  0  0  0  0
  -49.5062   55.5296   59.9151 H   0  0  0  0  0  0  0  0  0  0  0  0
 12 13  1  0  0  0
  9 10  2  0  0  0
  9  8  1  0  0  0
  6  7  2  0  0  0
  6  8  1  0  0  0
 10 11  1  0  0  0
  7  5  1  0  0  0
 16 17  2  0  0  0
 16 18  1  0  0  0
 17 19  1  0  0  0
 18 21  2  0  0  0
 13 11  1  0  0  0
  5  4  1  0  0  0
  4  3  1  0  0  0
  3  2  1  0  0  0
  2  1  1  0  0  0
  1 14  1  0  0  0
 14 15  1  0  0  0
 15 21  1  0  0  0
 19 20  2  0  0  0
 19 22  1  0  0  0
 20 21  1  0  0  0
 20 23  1  0  0  0
 22 24  1  0  0  0
 23 25  1  0  0  0
M  END
> <minimizedAffinity>
-7.75105

> <CNNscore>
0.3591632843

> <CNNaffinity>
6.5364227295

> <CNN_VS>
2.3476431370

> <CNNaffinity_variance>
0.2525120378

$$$$
/media/chris/experiments/cd1a-new-docking/inputs/ligands/5j1a_ligand.pdb


 25 25  0  0  0  0  0  0  0  0999 V2000
  -45.9608   57.9818   59.1311 C   0  0  0  0  0  0  0  0  0  0  0  0
  -47.0676   58.4699   58.1847 C   0  0  0  0  0  0  0  0  0  0  0  0
  -48.2228   59.0624   58.9800 C   0  0  0  0  0  0  0  0  0  0  0  0
  -49.4773   58.2164   58.7598 C   0  0  0  0  0  0  0  0  0  0  0  0
  -49.6085   57.1707   59.8669 C   0  0  0  0  0  0  0  0  0  0  0  0
  -50.7333   58.5525   61.8422 C   0  0  0  0  0  0  0  0  0  0  0  0
  -50.8421   57.5237   60.6998 C   0  0  0  0  0  0  0  0  0  0  0  0
  -49.3882   59.1614   62.2673 C   0  0  0  0  0  0  0  0  0  0  0  0
  -48.7817   58.2278   63.3250 C   0  0  0  0  0  0  0  0  0  0  0  0
  -48.0034   58.7710   64.5472 C   0  0  0  0  0  0  0  0  0  0  0  0
  -47.8242   60.2824   64.7900 C   0  0  0  0  0  0  0  0  0  0  0  0
  -45.6583   59.4695   65.8274 C   0  0  0  0  0  0  0  0  0  0  0  0
  -46.3221   60.5451   64.9643 C   0  0  0  0  0  0  0  0  0  0  0  0
  -46.2575   58.2735   60.6250 C   0  0  0  0  0  0  0  0  0  0  0  0
  -44.9784   58.3982   61.4863 C   0  0  0  0  0  0  0  0  0  0  0  0
  -45.2078   62.0924   61.7219 C   0  0  0  0  0  0  0  0  0  0  0  0
  -44.0722   62.4109   62.4785 C   0  0  0  0  0  0  0  0  0  0  0  0
  -45.4918   60.7601   61.3991 C   0  0  0  0  0  0  0  0  0  0  0  0
  -43.2379   61.3772   62.9037 C   0  0  0  0  0  0  0  0  0  0  0  0
  -43.5309   60.0522   62.5853 C   0  0  0  0  0  0  0  0  0  0  0  0
  -44.6763   59.7169   61.8520 C   0  0  0  0  0  0  0  0  0  0  0  0
  -42.1197   61.6016   63.6364 O   0  0  0  0  0  0  0  0  0  0  0  0
  -42.6903   59.0735   63.0295 O   0  0  0  0  0  0  0  0  0  0  0  0
  -41.8830   62.4766   63.8740 H   0  0  0  0  0  0  0  0  0  0  0  0
  -41.9248   59.3005   63.5198 H   0  0  0  0  0  0  0  0  0  0  0  0
 12 13  1  0  0  0
  9 10  2  0  0  0
  9  8  1  0  0  0
  6  7  2  0  0  0
  6  8  1  0  0  0
 10 11  1  0  0  0
  7  5  1  0  0  0
 16 17  2  0  0  0
 16 18  1  0  0  0
 17 19  1  0  0  0
 18 21  2  0  0  0
 13 11  1  0  0  0
  5  4  1  0  0  0
  4  3  1  0  0  0
  3  2  1  0  0  0
  2  1  1  0  0  0
  1 14  1  0  0  0
 14 15  1  0  0  0
 15 21  1  0  0  0
 19 20  2  0  0  0
 19 22  1  0  0  0
 20 21  1  0  0  0
 20 23  1  0  0  0
 22 24  1  0  0  0
 23 25  1  0  0  0
M  END
> <minimizedAffinity>
-7.32156

> <CNNscore>
0.3025296330

> <CNNaffinity>
6.1357660294

> <CNN_VS>
1.8562510014

> <CNNaffinity_variance>
0.2156509161

$$$$
