/media/chris/experiments/cd1a-new-docking/inputs/ligands/5j1a_ligand.pdb


 25 25  0  0  0  0  0  0  0  0999 V2000
  -47.1410   56.3349   57.4159 C   0  0  0  0  0  0  0  0  0  0  0  0
  -48.4993   56.8045   56.8742 C   0  0  0  0  0  0  0  0  0  0  0  0
  -49.3674   57.3357   58.0066 C   0  0  0  0  0  0  0  0  0  0  0  0
  -49.1746   56.4623   59.2467 C   0  0  0  0  0  0  0  0  0  0  0  0
  -50.0582   56.9655   60.3880 C   0  0  0  0  0  0  0  0  0  0  0  0
  -50.2512   59.3367   61.5779 C   0  0  0  0  0  0  0  0  0  0  0  0
  -50.1164   58.4913   60.2963 C   0  0  0  0  0  0  0  0  0  0  0  0
  -50.4545   58.6975   62.9601 C   0  0  0  0  0  0  0  0  0  0  0  0
  -51.0900   59.7641   63.8641 C   0  0  0  0  0  0  0  0  0  0  0  0
  -50.6646   59.9449   65.3409 C   0  0  0  0  0  0  0  0  0  0  0  0
  -49.5533   59.0874   65.9772 C   0  0  0  0  0  0  0  0  0  0  0  0
  -47.1925   59.9914   66.1712 C   0  0  0  0  0  0  0  0  0  0  0  0
  -48.6153   60.0381   66.7334 C   0  0  0  0  0  0  0  0  0  0  0  0
  -46.1189   57.4877   57.5927 C   0  0  0  0  0  0  0  0  0  0  0  0
  -45.7427   57.7461   59.0709 C   0  0  0  0  0  0  0  0  0  0  0  0
  -47.5056   61.0050   59.2370 C   0  0  0  0  0  0  0  0  0  0  0  0
  -47.4578   61.2969   60.6065 C   0  0  0  0  0  0  0  0  0  0  0  0
  -46.9305   59.8276   58.7441 C   0  0  0  0  0  0  0  0  0  0  0  0
  -46.8315   60.3923   61.4637 C   0  0  0  0  0  0  0  0  0  0  0  0
  -46.2678   59.2180   60.9673 C   0  0  0  0  0  0  0  0  0  0  0  0
  -46.3310   58.9009   59.6045 C   0  0  0  0  0  0  0  0  0  0  0  0
  -46.7407   60.6020   62.7999 O   0  0  0  0  0  0  0  0  0  0  0  0
  -45.6725   58.3589   61.8444 O   0  0  0  0  0  0  0  0  0  0  0  0
  -47.1054   61.3778   63.1783 H   0  0  0  0  0  0  0  0  0  0  0  0
  -45.6315   58.5734   62.7556 H   0  0  0  0  0  0  0  0  0  0  0  0
 12 13  1  0  0  0
  9 10  2  0  0  0
  9  8  1  0  0  0
  6  7  2  0  0  0
  6  8  1  0  0  0
 10 11  1  0  0  0
  7  5  1  0  0  0
 16 17  2  0  0  0
 16 18  1  0  0  0
 17 19  1  0  0  0
 18 21  2  0  0  0
 13 11  1  0  0  0
  5  4  1  0  0  0
  4  3  1  0  0  0
  3  2  1  0  0  0
  2  1  1  0  0  0
  1 14  1  0  0  0
 14 15  1  0  0  0
 15 21  1  0  0  0
 19 20  2  0  0  0
 19 22  1  0  0  0
 20 21  1  0  0  0
 20 23  1  0  0  0
 22 24  1  0  0  0
 23 25  1  0  0  0
M  END
> <minimizedAffinity>
-8.13638

> <CNNscore>
0.5896524787

> <CNNaffinity>
6.6707611084

> <CNN_VS>
3.9334309101

> <CNNaffinity_variance>
0.0739380121

$$$$
/media/chris/experiments/cd1a-new-docking/inputs/ligands/5j1a_ligand.pdb


 25 25  0  0  0  0  0  0  0  0999 V2000
  -48.3224   57.9964   66.1660 C   0  0  0  0  0  0  0  0  0  0  0  0
  -49.7907   58.4423   66.1006 C   0  0  0  0  0  0  0  0  0  0  0  0
  -50.1568   58.8571   64.6822 C   0  0  0  0  0  0  0  0  0  0  0  0
  -49.1770   58.2180   63.6975 C   0  0  0  0  0  0  0  0  0  0  0  0
  -49.3731   58.8083   62.3012 C   0  0  0  0  0  0  0  0  0  0  0  0
  -50.8638   57.3754   60.6277 C   0  0  0  0  0  0  0  0  0  0  0  0
  -50.7502   58.3716   61.7982 C   0  0  0  0  0  0  0  0  0  0  0  0
  -49.6326   56.8850   59.8504 C   0  0  0  0  0  0  0  0  0  0  0  0
  -49.5241   57.7453   58.5830 C   0  0  0  0  0  0  0  0  0  0  0  0
  -48.2704   58.5997   58.2780 C   0  0  0  0  0  0  0  0  0  0  0  0
  -47.0450   58.6070   59.2128 C   0  0  0  0  0  0  0  0  0  0  0  0
  -46.0288   57.4744   57.1848 C   0  0  0  0  0  0  0  0  0  0  0  0
  -46.0798   57.5231   58.7138 C   0  0  0  0  0  0  0  0  0  0  0  0
  -47.4008   59.0211   66.8771 C   0  0  0  0  0  0  0  0  0  0  0  0
  -45.9510   59.0126   66.3373 C   0  0  0  0  0  0  0  0  0  0  0  0
  -46.6787   61.4504   63.6386 C   0  0  0  0  0  0  0  0  0  0  0  0
  -45.5090   61.3967   62.8691 C   0  0  0  0  0  0  0  0  0  0  0  0
  -46.8109   60.6528   64.7815 C   0  0  0  0  0  0  0  0  0  0  0  0
  -44.4837   60.5388   63.2663 C   0  0  0  0  0  0  0  0  0  0  0  0
  -44.6187   59.7531   64.4098 C   0  0  0  0  0  0  0  0  0  0  0  0
  -45.7715   59.8159   65.2029 C   0  0  0  0  0  0  0  0  0  0  0  0
  -43.3226   60.4265   62.5757 O   0  0  0  0  0  0  0  0  0  0  0  0
  -43.5862   58.9345   64.7643 O   0  0  0  0  0  0  0  0  0  0  0  0
  -43.1874   60.9354   61.8005 H   0  0  0  0  0  0  0  0  0  0  0  0
  -42.8161   58.8944   64.2320 H   0  0  0  0  0  0  0  0  0  0  0  0
 12 13  1  0  0  0
  9 10  2  0  0  0
  9  8  1  0  0  0
  6  7  2  0  0  0
  6  8  1  0  0  0
 10 11  1  0  0  0
  7  5  1  0  0  0
 16 17  2  0  0  0
 16 18  1  0  0  0
 17 19  1  0  0  0
 18 21  2  0  0  0
 13 11  1  0  0  0
  5  4  1  0  0  0
  4  3  1  0  0  0
  3  2  1  0  0  0
  2  1  1  0  0  0
  1 14  1  0  0  0
 14 15  1  0  0  0
 15 21  1  0  0  0
 19 20  2  0  0  0
 19 22  1  0  0  0
 20 21  1  0  0  0
 20 23  1  0  0  0
 22 24  1  0  0  0
 23 25  1  0  0  0
M  END
> <minimizedAffinity>
-7.62474

> <CNNscore>
0.5715864301

> <CNNaffinity>
6.4868745804

> <CNN_VS>
3.7078094482

> <CNNaffinity_variance>
0.1997965872

$$$$
/media/chris/experiments/cd1a-new-docking/inputs/ligands/5j1a_ligand.pdb


 25 25  0  0  0  0  0  0  0  0999 V2000
  -47.5412   60.7892   61.2172 C   0  0  0  0  0  0  0  0  0  0  0  0
  -46.0133   60.6357   61.1852 C   0  0  0  0  0  0  0  0  0  0  0  0
  -45.3422   61.8938   61.7191 C   0  0  0  0  0  0  0  0  0  0  0  0
  -44.9851   61.6925   63.1922 C   0  0  0  0  0  0  0  0  0  0  0  0
  -44.9613   60.2018   63.5295 C   0  0  0  0  0  0  0  0  0  0  0  0
  -46.4803   60.2544   65.7126 C   0  0  0  0  0  0  0  0  0  0  0  0
  -45.1037   60.0633   65.0463 C   0  0  0  0  0  0  0  0  0  0  0  0
  -47.7162   60.7050   64.9189 C   0  0  0  0  0  0  0  0  0  0  0  0
  -48.9364   60.0209   65.5527 C   0  0  0  0  0  0  0  0  0  0  0  0
  -49.6778   58.8567   64.8529 C   0  0  0  0  0  0  0  0  0  0  0  0
  -49.2106   58.2948   63.4960 C   0  0  0  0  0  0  0  0  0  0  0  0
  -51.1758   59.7122   62.7497 C   0  0  0  0  0  0  0  0  0  0  0  0
  -50.3853   58.4225   62.5166 C   0  0  0  0  0  0  0  0  0  0  0  0
  -48.1774   60.8929   59.8067 C   0  0  0  0  0  0  0  0  0  0  0  0
  -48.9805   59.6324   59.4072 C   0  0  0  0  0  0  0  0  0  0  0  0
  -46.3506   58.1536   57.2502 C   0  0  0  0  0  0  0  0  0  0  0  0
  -46.6813   56.7923   57.2730 C   0  0  0  0  0  0  0  0  0  0  0  0
  -47.1234   59.0812   57.9589 C   0  0  0  0  0  0  0  0  0  0  0  0
  -47.7886   56.3833   58.0158 C   0  0  0  0  0  0  0  0  0  0  0  0
  -48.5490   57.3112   58.7256 C   0  0  0  0  0  0  0  0  0  0  0  0
  -48.2149   58.6714   58.7329 C   0  0  0  0  0  0  0  0  0  0  0  0
  -48.1760   55.0862   58.0872 O   0  0  0  0  0  0  0  0  0  0  0  0
  -49.6188   56.8640   59.4448 O   0  0  0  0  0  0  0  0  0  0  0  0
  -47.6947   54.4274   57.6264 H   0  0  0  0  0  0  0  0  0  0  0  0
  -49.8403   55.9535   59.4382 H   0  0  0  0  0  0  0  0  0  0  0  0
 12 13  1  0  0  0
  9 10  2  0  0  0
  9  8  1  0  0  0
  6  7  2  0  0  0
  6  8  1  0  0  0
 10 11  1  0  0  0
  7  5  1  0  0  0
 16 17  2  0  0  0
 16 18  1  0  0  0
 17 19  1  0  0  0
 18 21  2  0  0  0
 13 11  1  0  0  0
  5  4  1  0  0  0
  4  3  1  0  0  0
  3  2  1  0  0  0
  2  1  1  0  0  0
  1 14  1  0  0  0
 14 15  1  0  0  0
 15 21  1  0  0  0
 19 20  2  0  0  0
 19 22  1  0  0  0
 20 21  1  0  0  0
 20 23  1  0  0  0
 22 24  1  0  0  0
 23 25  1  0  0  0
M  END
> <minimizedAffinity>
-7.97512

> <CNNscore>
0.5408349633

> <CNNaffinity>
6.7601103783

> <CNN_VS>
3.6561040878

> <CNNaffinity_variance>
0.2714799345

$$$$
/media/chris/experiments/cd1a-new-docking/inputs/ligands/5j1a_ligand.pdb


 25 25  0  0  0  0  0  0  0  0999 V2000
  -42.6034   61.7670   61.8494 C   0  0  0  0  0  0  0  0  0  0  0  0
  -43.9867   61.6747   62.5107 C   0  0  0  0  0  0  0  0  0  0  0  0
  -45.0632   61.4428   61.4592 C   0  0  0  0  0  0  0  0  0  0  0  0
  -45.7353   60.0925   61.7100 C   0  0  0  0  0  0  0  0  0  0  0  0
  -46.3721   59.5736   60.4210 C   0  0  0  0  0  0  0  0  0  0  0  0
  -45.8344   57.5638   58.7633 C   0  0  0  0  0  0  0  0  0  0  0  0
  -45.8634   58.1498   60.1885 C   0  0  0  0  0  0  0  0  0  0  0  0
  -46.4176   58.3180   57.5584 C   0  0  0  0  0  0  0  0  0  0  0  0
  -47.4007   57.3667   56.8605 C   0  0  0  0  0  0  0  0  0  0  0  0
  -48.8705   57.2243   57.3229 C   0  0  0  0  0  0  0  0  0  0  0  0
  -49.4398   58.0567   58.4885 C   0  0  0  0  0  0  0  0  0  0  0  0
  -50.5871   57.7762   60.7320 C   0  0  0  0  0  0  0  0  0  0  0  0
  -49.8065   57.0803   59.6144 C   0  0  0  0  0  0  0  0  0  0  0  0
  -41.7333   60.5021   62.0675 C   0  0  0  0  0  0  0  0  0  0  0  0
  -40.3629   60.5757   61.3532 C   0  0  0  0  0  0  0  0  0  0  0  0
  -39.5846   56.9951   61.9270 C   0  0  0  0  0  0  0  0  0  0  0  0
  -38.2237   56.9328   61.5996 C   0  0  0  0  0  0  0  0  0  0  0  0
  -40.2774   58.2087   61.8436 C   0  0  0  0  0  0  0  0  0  0  0  0
  -37.5788   58.0988   61.1877 C   0  0  0  0  0  0  0  0  0  0  0  0
  -38.2766   59.3023   61.0992 C   0  0  0  0  0  0  0  0  0  0  0  0
  -39.6431   59.3739   61.3983 C   0  0  0  0  0  0  0  0  0  0  0  0
  -36.2646   58.1232   60.8561 O   0  0  0  0  0  0  0  0  0  0  0  0
  -37.6062   60.4158   60.6838 O   0  0  0  0  0  0  0  0  0  0  0  0
  -35.7556   57.3378   60.9004 H   0  0  0  0  0  0  0  0  0  0  0  0
  -36.6921   60.3652   60.4844 H   0  0  0  0  0  0  0  0  0  0  0  0
 12 13  1  0  0  0
  9 10  2  0  0  0
  9  8  1  0  0  0
  6  7  2  0  0  0
  6  8  1  0  0  0
 10 11  1  0  0  0
  7  5  1  0  0  0
 16 17  2  0  0  0
 16 18  1  0  0  0
 17 19  1  0  0  0
 18 21  2  0  0  0
 13 11  1  0  0  0
  5  4  1  0  0  0
  4  3  1  0  0  0
  3  2  1  0  0  0
  2  1  1  0  0  0
  1 14  1  0  0  0
 14 15  1  0  0  0
 15 21  1  0  0  0
 19 20  2  0  0  0
 19 22  1  0  0  0
 20 21  1  0  0  0
 20 23  1  0  0  0
 22 24  1  0  0  0
 23 25  1  0  0  0
M  END
> <minimizedAffinity>
-8.40136

> <CNNscore>
0.5118841529

> <CNNaffinity>
6.1589031219

> <CNN_VS>
3.1526448727

> <CNNaffinity_variance>
0.0289009400

$$$$
/media/chris/experiments/cd1a-new-docking/inputs/ligands/5j1a_ligand.pdb


 25 25  0  0  0  0  0  0  0  0999 V2000
  -45.8909   57.6070   59.6427 C   0  0  0  0  0  0  0  0  0  0  0  0
  -45.9979   57.9647   58.1528 C   0  0  0  0  0  0  0  0  0  0  0  0
  -47.1309   58.9560   57.9251 C   0  0  0  0  0  0  0  0  0  0  0  0
  -48.4691   58.2180   57.9755 C   0  0  0  0  0  0  0  0  0  0  0  0
  -49.3364   58.7764   59.1035 C   0  0  0  0  0  0  0  0  0  0  0  0
  -50.8610   57.4835   60.8586 C   0  0  0  0  0  0  0  0  0  0  0  0
  -50.4313   57.7509   59.4028 C   0  0  0  0  0  0  0  0  0  0  0  0
  -50.1405   58.1262   62.0537 C   0  0  0  0  0  0  0  0  0  0  0  0
  -50.9112   59.4048   62.4139 C   0  0  0  0  0  0  0  0  0  0  0  0
  -50.9693   59.9452   63.8628 C   0  0  0  0  0  0  0  0  0  0  0  0
  -50.2265   59.2491   65.0200 C   0  0  0  0  0  0  0  0  0  0  0  0
  -48.0069   60.3330   64.4482 C   0  0  0  0  0  0  0  0  0  0  0  0
  -49.1180   60.1997   65.4924 C   0  0  0  0  0  0  0  0  0  0  0  0
  -45.9720   58.8415   60.5777 C   0  0  0  0  0  0  0  0  0  0  0  0
  -45.0162   58.7499   61.7908 C   0  0  0  0  0  0  0  0  0  0  0  0
  -44.3335   62.3943   61.8821 C   0  0  0  0  0  0  0  0  0  0  0  0
  -43.1676   62.4568   62.6565 C   0  0  0  0  0  0  0  0  0  0  0  0
  -44.9312   61.1598   61.6017 C   0  0  0  0  0  0  0  0  0  0  0  0
  -42.6205   61.2694   63.1423 C   0  0  0  0  0  0  0  0  0  0  0  0
  -43.2252   60.0442   62.8659 C   0  0  0  0  0  0  0  0  0  0  0  0
  -44.4052   59.9689   62.1151 C   0  0  0  0  0  0  0  0  0  0  0  0
  -41.4941   61.2439   63.8960 O   0  0  0  0  0  0  0  0  0  0  0  0
  -42.6588   58.9093   63.3688 O   0  0  0  0  0  0  0  0  0  0  0  0
  -41.0534   62.0435   64.1071 H   0  0  0  0  0  0  0  0  0  0  0  0
  -41.8694   58.9623   63.8708 H   0  0  0  0  0  0  0  0  0  0  0  0
 12 13  1  0  0  0
  9 10  2  0  0  0
  9  8  1  0  0  0
  6  7  2  0  0  0
  6  8  1  0  0  0
 10 11  1  0  0  0
  7  5  1  0  0  0
 16 17  2  0  0  0
 16 18  1  0  0  0
 17 19  1  0  0  0
 18 21  2  0  0  0
 13 11  1  0  0  0
  5  4  1  0  0  0
  4  3  1  0  0  0
  3  2  1  0  0  0
  2  1  1  0  0  0
  1 14  1  0  0  0
 14 15  1  0  0  0
 15 21  1  0  0  0
 19 20  2  0  0  0
 19 22  1  0  0  0
 20 21  1  0  0  0
 20 23  1  0  0  0
 22 24  1  0  0  0
 23 25  1  0  0  0
M  END
> <minimizedAffinity>
-8.34131

> <CNNscore>
0.4934715629

> <CNNaffinity>
6.3050541878

> <CNN_VS>
3.1113648415

> <CNNaffinity_variance>
0.1591481864

$$$$
/media/chris/experiments/cd1a-new-docking/inputs/ligands/5j1a_ligand.pdb


 25 25  0  0  0  0  0  0  0  0999 V2000
  -50.5549   58.0721   61.4004 C   0  0  0  0  0  0  0  0  0  0  0  0
  -50.3042   58.4121   62.8771 C   0  0  0  0  0  0  0  0  0  0  0  0
  -50.8990   59.7718   63.2170 C   0  0  0  0  0  0  0  0  0  0  0  0
  -50.9080   59.9569   64.7348 C   0  0  0  0  0  0  0  0  0  0  0  0
  -49.9299   58.9821   65.3902 C   0  0  0  0  0  0  0  0  0  0  0  0
  -47.9644   60.5533   66.2527 C   0  0  0  0  0  0  0  0  0  0  0  0
  -49.2300   59.7196   66.5331 C   0  0  0  0  0  0  0  0  0  0  0  0
  -47.2930   60.5790   64.8710 C   0  0  0  0  0  0  0  0  0  0  0  0
  -45.7861   60.3863   65.0952 C   0  0  0  0  0  0  0  0  0  0  0  0
  -45.1331   58.9835   65.1095 C   0  0  0  0  0  0  0  0  0  0  0  0
  -45.9541   57.7025   64.8637 C   0  0  0  0  0  0  0  0  0  0  0  0
  -47.5506   56.1747   66.1068 C   0  0  0  0  0  0  0  0  0  0  0  0
  -46.3929   57.1679   66.2338 C   0  0  0  0  0  0  0  0  0  0  0  0
  -49.8712   59.0589   60.4187 C   0  0  0  0  0  0  0  0  0  0  0  0
  -49.8537   58.5498   58.9579 C   0  0  0  0  0  0  0  0  0  0  0  0
  -46.4556   58.3838   57.4810 C   0  0  0  0  0  0  0  0  0  0  0  0
  -46.1260   57.0326   57.6503 C   0  0  0  0  0  0  0  0  0  0  0  0
  -47.6944   58.8696   57.9160 C   0  0  0  0  0  0  0  0  0  0  0  0
  -47.0522   56.1877   58.2614 C   0  0  0  0  0  0  0  0  0  0  0  0
  -48.2807   56.6796   58.6993 C   0  0  0  0  0  0  0  0  0  0  0  0
  -48.6130   58.0332   58.5602 C   0  0  0  0  0  0  0  0  0  0  0  0
  -46.8111   54.8685   58.4597 O   0  0  0  0  0  0  0  0  0  0  0  0
  -49.1521   55.8177   59.2988 O   0  0  0  0  0  0  0  0  0  0  0  0
  -45.9985   54.4937   58.1816 H   0  0  0  0  0  0  0  0  0  0  0  0
  -48.9274   54.9126   59.3906 H   0  0  0  0  0  0  0  0  0  0  0  0
 12 13  1  0  0  0
  9 10  2  0  0  0
  9  8  1  0  0  0
  6  7  2  0  0  0
  6  8  1  0  0  0
 10 11  1  0  0  0
  7  5  1  0  0  0
 16 17  2  0  0  0
 16 18  1  0  0  0
 17 19  1  0  0  0
 18 21  2  0  0  0
 13 11  1  0  0  0
  5  4  1  0  0  0
  4  3  1  0  0  0
  3  2  1  0  0  0
  2  1  1  0  0  0
  1 14  1  0  0  0
 14 15  1  0  0  0
 15 21  1  0  0  0
 19 20  2  0  0  0
 19 22  1  0  0  0
 20 21  1  0  0  0
 20 23  1  0  0  0
 22 24  1  0  0  0
 23 25  1  0  0  0
M  END
> <minimizedAffinity>
-8.21588

> <CNNscore>
0.4060296714

> <CNNaffinity>
6.5554513931

> <CNN_VS>
2.6617078781

> <CNNaffinity_variance>
0.1507845819

$$$$
/media/chris/experiments/cd1a-new-docking/inputs/ligands/5j1a_ligand.pdb


 25 25  0  0  0  0  0  0  0  0999 V2000
  -46.0937   60.7012   61.2034 C   0  0  0  0  0  0  0  0  0  0  0  0
  -46.5122   59.7606   60.0635 C   0  0  0  0  0  0  0  0  0  0  0  0
  -45.9625   58.3609   60.3017 C   0  0  0  0  0  0  0  0  0  0  0  0
  -45.8540   57.6241   58.9662 C   0  0  0  0  0  0  0  0  0  0  0  0
  -46.5120   58.4445   57.8570 C   0  0  0  0  0  0  0  0  0  0  0  0
  -48.8779   57.3298   57.3710 C   0  0  0  0  0  0  0  0  0  0  0  0
  -47.3843   57.4981   57.0302 C   0  0  0  0  0  0  0  0  0  0  0  0
  -49.5140   57.9918   58.6029 C   0  0  0  0  0  0  0  0  0  0  0  0
  -49.4864   56.9580   59.7383 C   0  0  0  0  0  0  0  0  0  0  0  0
  -49.9863   57.2937   61.1637 C   0  0  0  0  0  0  0  0  0  0  0  0
  -50.5734   58.6749   61.5146 C   0  0  0  0  0  0  0  0  0  0  0  0
  -48.6436   58.4891   63.1485 C   0  0  0  0  0  0  0  0  0  0  0  0
  -49.5082   59.4374   62.3143 C   0  0  0  0  0  0  0  0  0  0  0  0
  -44.9380   60.1382   62.0708 C   0  0  0  0  0  0  0  0  0  0  0  0
  -44.8678   60.7755   63.4788 C   0  0  0  0  0  0  0  0  0  0  0  0
  -43.6227   58.3599   66.0027 C   0  0  0  0  0  0  0  0  0  0  0  0
  -42.3022   58.7876   66.1942 C   0  0  0  0  0  0  0  0  0  0  0  0
  -44.4600   59.0304   65.1031 C   0  0  0  0  0  0  0  0  0  0  0  0
  -41.8417   59.8872   65.4705 C   0  0  0  0  0  0  0  0  0  0  0  0
  -42.6783   60.5454   64.5705 C   0  0  0  0  0  0  0  0  0  0  0  0
  -43.9922   60.1130   64.3498 C   0  0  0  0  0  0  0  0  0  0  0  0
  -40.5795   60.3646   65.5999 O   0  0  0  0  0  0  0  0  0  0  0  0
  -42.1820   61.6116   63.8787 O   0  0  0  0  0  0  0  0  0  0  0  0
  -39.9818   59.9538   66.1932 H   0  0  0  0  0  0  0  0  0  0  0  0
  -41.3027   61.8989   64.0282 H   0  0  0  0  0  0  0  0  0  0  0  0
 12 13  1  0  0  0
  9 10  2  0  0  0
  9  8  1  0  0  0
  6  7  2  0  0  0
  6  8  1  0  0  0
 10 11  1  0  0  0
  7  5  1  0  0  0
 16 17  2  0  0  0
 16 18  1  0  0  0
 17 19  1  0  0  0
 18 21  2  0  0  0
 13 11  1  0  0  0
  5  4  1  0  0  0
  4  3  1  0  0  0
  3  2  1  0  0  0
  2  1  1  0  0  0
  1 14  1  0  0  0
 14 15  1  0  0  0
 15 21  1  0  0  0
 19 20  2  0  0  0
 19 22  1  0  0  0
 20 21  1  0  0  0
 20 23  1  0  0  0
 22 24  1  0  0  0
 23 25  1  0  0  0
M  END
> <minimizedAffinity>
-7.48531

> <CNNscore>
0.3854320943

> <CNNaffinity>
6.0596313477

> <CNN_VS>
2.3355762959

> <CNNaffinity_variance>
0.2938573956

$$$$
/media/chris/experiments/cd1a-new-docking/inputs/ligands/5j1a_ligand.pdb


 25 25  0  0  0  0  0  0  0  0999 V2000
  -45.4911   57.5721   59.3700 C   0  0  0  0  0  0  0  0  0  0  0  0
  -46.1583   58.1888   58.1316 C   0  0  0  0  0  0  0  0  0  0  0  0
  -46.7303   57.0969   57.2378 C   0  0  0  0  0  0  0  0  0  0  0  0
  -48.2008   57.3981   56.9461 C   0  0  0  0  0  0  0  0  0  0  0  0
  -48.9362   57.7373   58.2425 C   0  0  0  0  0  0  0  0  0  0  0  0
  -49.9423   56.3532   60.2792 C   0  0  0  0  0  0  0  0  0  0  0  0
  -48.9311   56.4870   59.1238 C   0  0  0  0  0  0  0  0  0  0  0  0
  -50.8941   57.4950   60.6675 C   0  0  0  0  0  0  0  0  0  0  0  0
  -50.3322   58.1399   61.9430 C   0  0  0  0  0  0  0  0  0  0  0  0
  -49.6940   59.5496   61.9351 C   0  0  0  0  0  0  0  0  0  0  0  0
  -49.6189   60.4003   60.6521 C   0  0  0  0  0  0  0  0  0  0  0  0
  -47.6996   61.1572   59.1784 C   0  0  0  0  0  0  0  0  0  0  0  0
  -48.2280   61.0478   60.6107 C   0  0  0  0  0  0  0  0  0  0  0  0
  -45.8146   58.3307   60.6833 C   0  0  0  0  0  0  0  0  0  0  0  0
  -44.6373   58.3389   61.6870 C   0  0  0  0  0  0  0  0  0  0  0  0
  -44.5171   62.0404   61.8870 C   0  0  0  0  0  0  0  0  0  0  0  0
  -43.3580   62.2575   62.6436 C   0  0  0  0  0  0  0  0  0  0  0  0
  -44.9252   60.7378   61.5760 C   0  0  0  0  0  0  0  0  0  0  0  0
  -42.6258   61.1539   63.0808 C   0  0  0  0  0  0  0  0  0  0  0  0
  -43.0421   59.8594   62.7743 C   0  0  0  0  0  0  0  0  0  0  0  0
  -44.2127   59.6268   62.0411 C   0  0  0  0  0  0  0  0  0  0  0  0
  -41.4928   61.2788   63.8144 O   0  0  0  0  0  0  0  0  0  0  0  0
  -42.2985   58.8101   63.2300 O   0  0  0  0  0  0  0  0  0  0  0  0
  -41.1749   62.1298   64.0444 H   0  0  0  0  0  0  0  0  0  0  0  0
  -41.5158   58.9685   63.7203 H   0  0  0  0  0  0  0  0  0  0  0  0
 12 13  1  0  0  0
  9 10  2  0  0  0
  9  8  1  0  0  0
  6  7  2  0  0  0
  6  8  1  0  0  0
 10 11  1  0  0  0
  7  5  1  0  0  0
 16 17  2  0  0  0
 16 18  1  0  0  0
 17 19  1  0  0  0
 18 21  2  0  0  0
 13 11  1  0  0  0
  5  4  1  0  0  0
  4  3  1  0  0  0
  3  2  1  0  0  0
  2  1  1  0  0  0
  1 14  1  0  0  0
 14 15  1  0  0  0
 15 21  1  0  0  0
 19 20  2  0  0  0
 19 22  1  0  0  0
 20 21  1  0  0  0
 20 23  1  0  0  0
 22 24  1  0  0  0
 23 25  1  0  0  0
M  END
> <minimizedAffinity>
-8.15080

> <CNNscore>
0.3496882915

> <CNNaffinity>
6.1252484322

> <CNN_VS>
2.1419277191

> <CNNaffinity_variance>
0.0959921852

$$$$
/media/chris/experiments/cd1a-new-docking/inputs/ligands/5j1a_ligand.pdb


 25 25  0  0  0  0  0  0  0  0999 V2000
  -45.9624   57.7809   58.6426 C   0  0  0  0  0  0  0  0  0  0  0  0
  -47.0489   58.7692   58.1933 C   0  0  0  0  0  0  0  0  0  0  0  0
  -48.0757   58.0663   57.3159 C   0  0  0  0  0  0  0  0  0  0  0  0
  -48.9393   57.1479   58.1812 C   0  0  0  0  0  0  0  0  0  0  0  0
  -49.9566   57.9715   58.9708 C   0  0  0  0  0  0  0  0  0  0  0  0
  -50.4542   57.9964   61.5838 C   0  0  0  0  0  0  0  0  0  0  0  0
  -50.2623   57.2188   60.2670 C   0  0  0  0  0  0  0  0  0  0  0  0
  -50.2286   59.5133   61.6767 C   0  0  0  0  0  0  0  0  0  0  0  0
  -51.1775   60.0475   62.7595 C   0  0  0  0  0  0  0  0  0  0  0  0
  -50.8198   59.9876   64.2639 C   0  0  0  0  0  0  0  0  0  0  0  0
  -49.4744   59.4202   64.7572 C   0  0  0  0  0  0  0  0  0  0  0  0
  -48.5535   57.2322   65.6476 C   0  0  0  0  0  0  0  0  0  0  0  0
  -49.7783   58.1455   65.5560 C   0  0  0  0  0  0  0  0  0  0  0  0
  -45.5910   57.9171   60.1420 C   0  0  0  0  0  0  0  0  0  0  0  0
  -46.7452   58.4775   61.0064 C   0  0  0  0  0  0  0  0  0  0  0  0
  -46.0308   62.0275   61.8082 C   0  0  0  0  0  0  0  0  0  0  0  0
  -45.6025   61.9488   63.1400 C   0  0  0  0  0  0  0  0  0  0  0  0
  -46.4023   60.8693   61.1150 C   0  0  0  0  0  0  0  0  0  0  0  0
  -45.5581   60.6991   63.7575 C   0  0  0  0  0  0  0  0  0  0  0  0
  -45.9369   59.5508   63.0639 C   0  0  0  0  0  0  0  0  0  0  0  0
  -46.3917   59.6177   61.7408 C   0  0  0  0  0  0  0  0  0  0  0  0
  -45.1534   60.5376   65.0412 O   0  0  0  0  0  0  0  0  0  0  0  0
  -45.8847   58.3509   63.7113 O   0  0  0  0  0  0  0  0  0  0  0  0
  -44.8896   61.2814   65.5464 H   0  0  0  0  0  0  0  0  0  0  0  0
  -45.5801   58.3089   64.5964 H   0  0  0  0  0  0  0  0  0  0  0  0
 12 13  1  0  0  0
  9 10  2  0  0  0
  9  8  1  0  0  0
  6  7  2  0  0  0
  6  8  1  0  0  0
 10 11  1  0  0  0
  7  5  1  0  0  0
 16 17  2  0  0  0
 16 18  1  0  0  0
 17 19  1  0  0  0
 18 21  2  0  0  0
 13 11  1  0  0  0
  5  4  1  0  0  0
  4  3  1  0  0  0
  3  2  1  0  0  0
  2  1  1  0  0  0
  1 14  1  0  0  0
 14 15  1  0  0  0
 15 21  1  0  0  0
 19 20  2  0  0  0
 19 22  1  0  0  0
 20 21  1  0  0  0
 20 23  1  0  0  0
 22 24  1  0  0  0
 23 25  1  0  0  0
M  END
> <minimizedAffinity>
-8.07696

> <CNNscore>
0.3437282145

> <CNNaffinity>
6.3217744827

> <CNN_VS>
2.1729722023

> <CNNaffinity_variance>
0.2059862316

$$$$
