/media/chris/experiments/cd1a-new-docking/inputs/ligands/5j1a_ligand.pdb


 25 25  0  0  0  0  0  0  0  0999 V2000
  -48.1530   56.2966   58.5850 C   0  0  0  0  0  0  0  0  0  0  0  0
  -49.1348   56.2329   59.7645 C   0  0  0  0  0  0  0  0  0  0  0  0
  -50.0847   57.4222   59.7292 C   0  0  0  0  0  0  0  0  0  0  0  0
  -50.8203   57.5242   61.0657 C   0  0  0  0  0  0  0  0  0  0  0  0
  -50.0300   58.4015   62.0364 C   0  0  0  0  0  0  0  0  0  0  0  0
  -51.0500   60.0544   63.8540 C   0  0  0  0  0  0  0  0  0  0  0  0
  -50.8980   59.6118   62.3856 C   0  0  0  0  0  0  0  0  0  0  0  0
  -50.4535   59.2459   65.0165 C   0  0  0  0  0  0  0  0  0  0  0  0
  -49.2323   60.0226   65.5297 C   0  0  0  0  0  0  0  0  0  0  0  0
  -47.7887   59.4988   65.3377 C   0  0  0  0  0  0  0  0  0  0  0  0
  -47.4944   58.1845   64.5882 C   0  0  0  0  0  0  0  0  0  0  0  0
  -47.5891   56.1797   66.1374 C   0  0  0  0  0  0  0  0  0  0  0  0
  -46.7048   57.2781   65.5425 C   0  0  0  0  0  0  0  0  0  0  0  0
  -46.6914   56.5819   59.0176 C   0  0  0  0  0  0  0  0  0  0  0  0
  -46.1736   57.9595   58.5406 C   0  0  0  0  0  0  0  0  0  0  0  0
  -47.9254   61.0227   59.6821 C   0  0  0  0  0  0  0  0  0  0  0  0
  -47.3483   61.2413   60.9400 C   0  0  0  0  0  0  0  0  0  0  0  0
  -47.5234   59.9342   58.8989 C   0  0  0  0  0  0  0  0  0  0  0  0
  -46.3728   60.3537   61.3939 C   0  0  0  0  0  0  0  0  0  0  0  0
  -45.9829   59.2675   60.6122 C   0  0  0  0  0  0  0  0  0  0  0  0
  -46.5697   59.0219   59.3642 C   0  0  0  0  0  0  0  0  0  0  0  0
  -45.7646   60.4966   62.5969 O   0  0  0  0  0  0  0  0  0  0  0  0
  -45.0305   58.4212   61.1005 O   0  0  0  0  0  0  0  0  0  0  0  0
  -45.9949   61.2122   63.1563 H   0  0  0  0  0  0  0  0  0  0  0  0
  -44.6396   58.5877   61.9357 H   0  0  0  0  0  0  0  0  0  0  0  0
 12 13  1  0  0  0
  9 10  2  0  0  0
  9  8  1  0  0  0
  6  7  2  0  0  0
  6  8  1  0  0  0
 10 11  1  0  0  0
  7  5  1  0  0  0
 16 17  2  0  0  0
 16 18  1  0  0  0
 17 19  1  0  0  0
 18 21  2  0  0  0
 13 11  1  0  0  0
  5  4  1  0  0  0
  4  3  1  0  0  0
  3  2  1  0  0  0
  2  1  1  0  0  0
  1 14  1  0  0  0
 14 15  1  0  0  0
 15 21  1  0  0  0
 19 20  2  0  0  0
 19 22  1  0  0  0
 20 21  1  0  0  0
 20 23  1  0  0  0
 22 24  1  0  0  0
 23 25  1  0  0  0
M  END
> <minimizedAffinity>
-7.84560

> <CNNscore>
0.6220480204

> <CNNaffinity>
6.7138519287

> <CNN_VS>
4.1763381958

> <CNNaffinity_variance>
0.1898563951

$$$$
/media/chris/experiments/cd1a-new-docking/inputs/ligands/5j1a_ligand.pdb


 25 25  0  0  0  0  0  0  0  0999 V2000
  -46.2111   58.6529   59.5106 C   0  0  0  0  0  0  0  0  0  0  0  0
  -46.1486   57.7375   58.2789 C   0  0  0  0  0  0  0  0  0  0  0  0
  -47.4837   57.0357   58.0709 C   0  0  0  0  0  0  0  0  0  0  0  0
  -47.5998   55.8656   59.0484 C   0  0  0  0  0  0  0  0  0  0  0  0
  -48.9137   55.9556   59.8242 C   0  0  0  0  0  0  0  0  0  0  0  0
  -50.3748   58.1445   60.2122 C   0  0  0  0  0  0  0  0  0  0  0  0
  -49.7111   57.1322   59.2583 C   0  0  0  0  0  0  0  0  0  0  0  0
  -50.3717   57.9530   61.7368 C   0  0  0  0  0  0  0  0  0  0  0  0
  -50.7688   59.2974   62.3637 C   0  0  0  0  0  0  0  0  0  0  0  0
  -50.6016   59.5767   63.8767 C   0  0  0  0  0  0  0  0  0  0  0  0
  -49.9934   58.5324   64.8332 C   0  0  0  0  0  0  0  0  0  0  0  0
  -48.5625   60.4099   65.7584 C   0  0  0  0  0  0  0  0  0  0  0  0
  -49.5347   59.2767   66.0947 C   0  0  0  0  0  0  0  0  0  0  0  0
  -47.1206   59.8926   59.3086 C   0  0  0  0  0  0  0  0  0  0  0  0
  -47.7013   60.4434   60.6326 C   0  0  0  0  0  0  0  0  0  0  0  0
  -44.9511   62.3649   62.2136 C   0  0  0  0  0  0  0  0  0  0  0  0
  -44.6624   61.5905   63.3449 C   0  0  0  0  0  0  0  0  0  0  0  0
  -45.9573   61.9700   61.3239 C   0  0  0  0  0  0  0  0  0  0  0  0
  -45.3976   60.4261   63.5662 C   0  0  0  0  0  0  0  0  0  0  0  0
  -46.4034   60.0429   62.6805 C   0  0  0  0  0  0  0  0  0  0  0  0
  -46.7204   60.8209   61.5596 C   0  0  0  0  0  0  0  0  0  0  0  0
  -45.1784   59.6211   64.6347 O   0  0  0  0  0  0  0  0  0  0  0  0
  -47.1018   58.9002   62.9417 O   0  0  0  0  0  0  0  0  0  0  0  0
  -44.5122   59.8391   65.2566 H   0  0  0  0  0  0  0  0  0  0  0  0
  -46.8878   58.3815   63.6922 H   0  0  0  0  0  0  0  0  0  0  0  0
 12 13  1  0  0  0
  9 10  2  0  0  0
  9  8  1  0  0  0
  6  7  2  0  0  0
  6  8  1  0  0  0
 10 11  1  0  0  0
  7  5  1  0  0  0
 16 17  2  0  0  0
 16 18  1  0  0  0
 17 19  1  0  0  0
 18 21  2  0  0  0
 13 11  1  0  0  0
  5  4  1  0  0  0
  4  3  1  0  0  0
  3  2  1  0  0  0
  2  1  1  0  0  0
  1 14  1  0  0  0
 14 15  1  0  0  0
 15 21  1  0  0  0
 19 20  2  0  0  0
 19 22  1  0  0  0
 20 21  1  0  0  0
 20 23  1  0  0  0
 22 24  1  0  0  0
 23 25  1  0  0  0
M  END
> <minimizedAffinity>
-7.55812

> <CNNscore>
0.6054934263

> <CNNaffinity>
6.6160674095

> <CNN_VS>
4.0059852600

> <CNNaffinity_variance>
0.1033265740

$$$$
/media/chris/experiments/cd1a-new-docking/inputs/ligands/5j1a_ligand.pdb


 25 25  0  0  0  0  0  0  0  0999 V2000
  -49.9875   58.9868   62.4428 C   0  0  0  0  0  0  0  0  0  0  0  0
  -51.1670   59.8060   62.9875 C   0  0  0  0  0  0  0  0  0  0  0  0
  -50.9755   60.0905   64.4709 C   0  0  0  0  0  0  0  0  0  0  0  0
  -50.2323   58.9224   65.1200 C   0  0  0  0  0  0  0  0  0  0  0  0
  -49.0773   59.4430   65.9752 C   0  0  0  0  0  0  0  0  0  0  0  0
  -47.3374   60.9359   64.6259 C   0  0  0  0  0  0  0  0  0  0  0  0
  -48.6553   60.8020   65.4136 C   0  0  0  0  0  0  0  0  0  0  0  0
  -46.3509   59.7670   64.4800 C   0  0  0  0  0  0  0  0  0  0  0  0
  -45.0454   60.1860   65.1715 C   0  0  0  0  0  0  0  0  0  0  0  0
  -44.3978   59.3299   66.2863 C   0  0  0  0  0  0  0  0  0  0  0  0
  -45.0090   57.9896   66.7399 C   0  0  0  0  0  0  0  0  0  0  0  0
  -44.1005   56.4187   64.9693 C   0  0  0  0  0  0  0  0  0  0  0  0
  -43.9886   56.8881   66.4217 C   0  0  0  0  0  0  0  0  0  0  0  0
  -50.4267   57.7953   61.5526 C   0  0  0  0  0  0  0  0  0  0  0  0
  -50.3901   58.1198   60.0404 C   0  0  0  0  0  0  0  0  0  0  0  0
  -47.1753   59.0239   58.4271 C   0  0  0  0  0  0  0  0  0  0  0  0
  -46.5836   57.7700   58.2251 C   0  0  0  0  0  0  0  0  0  0  0  0
  -48.4368   59.1226   59.0260 C   0  0  0  0  0  0  0  0  0  0  0  0
  -47.2732   56.6291   58.6348 C   0  0  0  0  0  0  0  0  0  0  0  0
  -48.5255   56.7350   59.2376 C   0  0  0  0  0  0  0  0  0  0  0  0
  -49.1176   57.9832   59.4694 C   0  0  0  0  0  0  0  0  0  0  0  0
  -46.7714   55.3802   58.4729 O   0  0  0  0  0  0  0  0  0  0  0  0
  -49.1596   55.5920   59.6292 O   0  0  0  0  0  0  0  0  0  0  0  0
  -45.9327   55.2606   58.0724 H   0  0  0  0  0  0  0  0  0  0  0  0
  -48.7614   54.7583   59.4729 H   0  0  0  0  0  0  0  0  0  0  0  0
 12 13  1  0  0  0
  9 10  2  0  0  0
  9  8  1  0  0  0
  6  7  2  0  0  0
  6  8  1  0  0  0
 10 11  1  0  0  0
  7  5  1  0  0  0
 16 17  2  0  0  0
 16 18  1  0  0  0
 17 19  1  0  0  0
 18 21  2  0  0  0
 13 11  1  0  0  0
  5  4  1  0  0  0
  4  3  1  0  0  0
  3  2  1  0  0  0
  2  1  1  0  0  0
  1 14  1  0  0  0
 14 15  1  0  0  0
 15 21  1  0  0  0
 19 20  2  0  0  0
 19 22  1  0  0  0
 20 21  1  0  0  0
 20 23  1  0  0  0
 22 24  1  0  0  0
 23 25  1  0  0  0
M  END
> <minimizedAffinity>
-7.73372

> <CNNscore>
0.4580073655

> <CNNaffinity>
6.6232500076

> <CNN_VS>
3.0334973335

> <CNNaffinity_variance>
0.1831351966

$$$$
/media/chris/experiments/cd1a-new-docking/inputs/ligands/5j1a_ligand.pdb


 25 25  0  0  0  0  0  0  0  0999 V2000
  -47.5097   58.8490   66.8812 C   0  0  0  0  0  0  0  0  0  0  0  0
  -47.8277   57.7303   65.8779 C   0  0  0  0  0  0  0  0  0  0  0  0
  -49.2252   57.9150   65.3025 C   0  0  0  0  0  0  0  0  0  0  0  0
  -49.7849   59.2651   65.7518 C   0  0  0  0  0  0  0  0  0  0  0  0
  -49.8857   60.2165   64.5597 C   0  0  0  0  0  0  0  0  0  0  0  0
  -50.8775   59.2614   62.2835 C   0  0  0  0  0  0  0  0  0  0  0  0
  -51.0879   59.7852   63.7176 C   0  0  0  0  0  0  0  0  0  0  0  0
  -49.4981   59.2665   61.6065 C   0  0  0  0  0  0  0  0  0  0  0  0
  -49.3627   60.6030   60.8626 C   0  0  0  0  0  0  0  0  0  0  0  0
  -48.1361   60.9263   59.9761 C   0  0  0  0  0  0  0  0  0  0  0  0
  -46.9980   59.9093   59.7618 C   0  0  0  0  0  0  0  0  0  0  0  0
  -46.2659   58.1638   58.0749 C   0  0  0  0  0  0  0  0  0  0  0  0
  -47.0573   59.4549   58.2970 C   0  0  0  0  0  0  0  0  0  0  0  0
  -46.1416   59.5327   66.6250 C   0  0  0  0  0  0  0  0  0  0  0  0
  -45.4839   59.0979   65.2939 C   0  0  0  0  0  0  0  0  0  0  0  0
  -46.2336   61.9837   63.0882 C   0  0  0  0  0  0  0  0  0  0  0  0
  -44.9839   62.2471   62.5118 C   0  0  0  0  0  0  0  0  0  0  0  0
  -46.3833   60.9359   64.0045 C   0  0  0  0  0  0  0  0  0  0  0  0
  -43.8978   61.4495   62.8717 C   0  0  0  0  0  0  0  0  0  0  0  0
  -44.0522   60.4129   63.7906 C   0  0  0  0  0  0  0  0  0  0  0  0
  -45.2896   60.1547   64.3943 C   0  0  0  0  0  0  0  0  0  0  0  0
  -42.6575   61.6373   62.3578 O   0  0  0  0  0  0  0  0  0  0  0  0
  -42.9599   59.6638   64.1184 O   0  0  0  0  0  0  0  0  0  0  0  0
  -42.5065   62.3223   61.7366 H   0  0  0  0  0  0  0  0  0  0  0  0
  -42.1333   59.8386   63.7132 H   0  0  0  0  0  0  0  0  0  0  0  0
 12 13  1  0  0  0
  9 10  2  0  0  0
  9  8  1  0  0  0
  6  7  2  0  0  0
  6  8  1  0  0  0
 10 11  1  0  0  0
  7  5  1  0  0  0
 16 17  2  0  0  0
 16 18  1  0  0  0
 17 19  1  0  0  0
 18 21  2  0  0  0
 13 11  1  0  0  0
  5  4  1  0  0  0
  4  3  1  0  0  0
  3  2  1  0  0  0
  2  1  1  0  0  0
  1 14  1  0  0  0
 14 15  1  0  0  0
 15 21  1  0  0  0
 19 20  2  0  0  0
 19 22  1  0  0  0
 20 21  1  0  0  0
 20 23  1  0  0  0
 22 24  1  0  0  0
 23 25  1  0  0  0
M  END
> <minimizedAffinity>
-7.35740

> <CNNscore>
0.4156539142

> <CNNaffinity>
6.3011560440

> <CNN_VS>
2.6191000938

> <CNNaffinity_variance>
0.2038751096

$$$$
/media/chris/experiments/cd1a-new-docking/inputs/ligands/5j1a_ligand.pdb


 25 25  0  0  0  0  0  0  0  0999 V2000
  -46.2790   57.2455   59.4867 C   0  0  0  0  0  0  0  0  0  0  0  0
  -46.3140   58.1060   58.2149 C   0  0  0  0  0  0  0  0  0  0  0  0
  -47.5240   59.0299   58.2323 C   0  0  0  0  0  0  0  0  0  0  0  0
  -48.8014   58.1954   58.1335 C   0  0  0  0  0  0  0  0  0  0  0  0
  -49.8304   58.6847   59.1524 C   0  0  0  0  0  0  0  0  0  0  0  0
  -49.5278   60.1547   61.3488 C   0  0  0  0  0  0  0  0  0  0  0  0
  -49.2472   59.9135   59.8527 C   0  0  0  0  0  0  0  0  0  0  0  0
  -50.4846   59.2623   62.1545 C   0  0  0  0  0  0  0  0  0  0  0  0
  -51.1767   60.1591   63.1912 C   0  0  0  0  0  0  0  0  0  0  0  0
  -50.8574   60.0608   64.7023 C   0  0  0  0  0  0  0  0  0  0  0  0
  -49.7997   59.0811   65.2471 C   0  0  0  0  0  0  0  0  0  0  0  0
  -47.8148   60.3735   66.1514 C   0  0  0  0  0  0  0  0  0  0  0  0
  -48.4192   59.6731   64.9321 C   0  0  0  0  0  0  0  0  0  0  0  0
  -46.3829   58.0755   60.7926 C   0  0  0  0  0  0  0  0  0  0  0  0
  -45.0096   58.3486   61.4507 C   0  0  0  0  0  0  0  0  0  0  0  0
  -45.5920   62.0001   61.7367 C   0  0  0  0  0  0  0  0  0  0  0  0
  -44.4433   62.4301   62.4140 C   0  0  0  0  0  0  0  0  0  0  0  0
  -45.7630   60.6467   61.4223 C   0  0  0  0  0  0  0  0  0  0  0  0
  -43.4810   61.4850   62.7694 C   0  0  0  0  0  0  0  0  0  0  0  0
  -43.6613   60.1379   62.4601 C   0  0  0  0  0  0  0  0  0  0  0  0
  -44.8165   59.6902   61.8065 C   0  0  0  0  0  0  0  0  0  0  0  0
  -42.3416   61.8197   63.4232 O   0  0  0  0  0  0  0  0  0  0  0  0
  -42.6969   59.2482   62.8344 O   0  0  0  0  0  0  0  0  0  0  0  0
  -42.1779   62.7136   63.6517 H   0  0  0  0  0  0  0  0  0  0  0  0
  -41.9251   59.5502   63.2715 H   0  0  0  0  0  0  0  0  0  0  0  0
 12 13  1  0  0  0
  9 10  2  0  0  0
  9  8  1  0  0  0
  6  7  2  0  0  0
  6  8  1  0  0  0
 10 11  1  0  0  0
  7  5  1  0  0  0
 16 17  2  0  0  0
 16 18  1  0  0  0
 17 19  1  0  0  0
 18 21  2  0  0  0
 13 11  1  0  0  0
  5  4  1  0  0  0
  4  3  1  0  0  0
  3  2  1  0  0  0
  2  1  1  0  0  0
  1 14  1  0  0  0
 14 15  1  0  0  0
 15 21  1  0  0  0
 19 20  2  0  0  0
 19 22  1  0  0  0
 20 21  1  0  0  0
 20 23  1  0  0  0
 22 24  1  0  0  0
 23 25  1  0  0  0
M  END
> <minimizedAffinity>
-7.89866

> <CNNscore>
0.3551838994

> <CNNaffinity>
6.2028880119

> <CNN_VS>
2.2031660080

> <CNNaffinity_variance>
0.1400658190

$$$$
/media/chris/experiments/cd1a-new-docking/inputs/ligands/5j1a_ligand.pdb


 25 25  0  0  0  0  0  0  0  0999 V2000
  -48.3430   55.8888   58.4978 C   0  0  0  0  0  0  0  0  0  0  0  0
  -49.1225   56.0670   59.8092 C   0  0  0  0  0  0  0  0  0  0  0  0
  -49.9737   57.3281   59.7535 C   0  0  0  0  0  0  0  0  0  0  0  0
  -50.5691   57.6002   61.1353 C   0  0  0  0  0  0  0  0  0  0  0  0
  -49.4812   58.0910   62.0903 C   0  0  0  0  0  0  0  0  0  0  0  0
  -49.4804   58.3341   64.7394 C   0  0  0  0  0  0  0  0  0  0  0  0
  -50.1644   58.5588   63.3767 C   0  0  0  0  0  0  0  0  0  0  0  0
  -48.1729   57.5384   64.8754 C   0  0  0  0  0  0  0  0  0  0  0  0
  -47.0311   58.5585   64.9919 C   0  0  0  0  0  0  0  0  0  0  0  0
  -45.6396   58.1704   65.5470 C   0  0  0  0  0  0  0  0  0  0  0  0
  -45.3114   56.7282   65.9807 C   0  0  0  0  0  0  0  0  0  0  0  0
  -43.6824   57.0850   64.0709 C   0  0  0  0  0  0  0  0  0  0  0  0
  -43.9325   56.3777   65.4049 C   0  0  0  0  0  0  0  0  0  0  0  0
  -46.8071   56.0080   58.6756 C   0  0  0  0  0  0  0  0  0  0  0  0
  -46.2563   57.4013   58.2897 C   0  0  0  0  0  0  0  0  0  0  0  0
  -45.7366   58.7787   61.6938 C   0  0  0  0  0  0  0  0  0  0  0  0
  -46.2640   60.0711   61.5729 C   0  0  0  0  0  0  0  0  0  0  0  0
  -45.7445   57.9061   60.5991 C   0  0  0  0  0  0  0  0  0  0  0  0
  -46.7907   60.4684   60.3440 C   0  0  0  0  0  0  0  0  0  0  0  0
  -46.7883   59.5972   59.2559 C   0  0  0  0  0  0  0  0  0  0  0  0
  -46.2409   58.3116   59.3551 C   0  0  0  0  0  0  0  0  0  0  0  0
  -47.3216   61.6999   60.1458 O   0  0  0  0  0  0  0  0  0  0  0  0
  -47.3071   60.0320   58.0712 O   0  0  0  0  0  0  0  0  0  0  0  0
  -47.3445   62.3189   60.8489 H   0  0  0  0  0  0  0  0  0  0  0  0
  -47.6726   60.8925   58.0076 H   0  0  0  0  0  0  0  0  0  0  0  0
 12 13  1  0  0  0
  9 10  2  0  0  0
  9  8  1  0  0  0
  6  7  2  0  0  0
  6  8  1  0  0  0
 10 11  1  0  0  0
  7  5  1  0  0  0
 16 17  2  0  0  0
 16 18  1  0  0  0
 17 19  1  0  0  0
 18 21  2  0  0  0
 13 11  1  0  0  0
  5  4  1  0  0  0
  4  3  1  0  0  0
  3  2  1  0  0  0
  2  1  1  0  0  0
  1 14  1  0  0  0
 14 15  1  0  0  0
 15 21  1  0  0  0
 19 20  2  0  0  0
 19 22  1  0  0  0
 20 21  1  0  0  0
 20 23  1  0  0  0
 22 24  1  0  0  0
 23 25  1  0  0  0
M  END
> <minimizedAffinity>
-7.55244

> <CNNscore>
0.2997741699

> <CNNaffinity>
6.5393590927

> <CNN_VS>
1.9603309631

> <CNNaffinity_variance>
0.1872902811

$$$$
/media/chris/experiments/cd1a-new-docking/inputs/ligands/5j1a_ligand.pdb


 25 25  0  0  0  0  0  0  0  0999 V2000
  -39.4939   60.3866   61.6663 C   0  0  0  0  0  0  0  0  0  0  0  0
  -38.8098   60.0286   60.3385 C   0  0  0  0  0  0  0  0  0  0  0  0
  -38.3177   58.5881   60.3665 C   0  0  0  0  0  0  0  0  0  0  0  0
  -39.3737   57.7037   61.0304 C   0  0  0  0  0  0  0  0  0  0  0  0
  -38.7256   56.8176   62.0940 C   0  0  0  0  0  0  0  0  0  0  0  0
  -38.1163   57.5668   64.5727 C   0  0  0  0  0  0  0  0  0  0  0  0
  -39.1629   57.3368   63.4650 C   0  0  0  0  0  0  0  0  0  0  0  0
  -36.6408   57.1762   64.3958 C   0  0  0  0  0  0  0  0  0  0  0  0
  -35.8790   58.4489   63.9983 C   0  0  0  0  0  0  0  0  0  0  0  0
  -35.0945   58.5521   62.6683 C   0  0  0  0  0  0  0  0  0  0  0  0
  -35.0639   57.3944   61.6513 C   0  0  0  0  0  0  0  0  0  0  0  0
  -32.6543   57.7259   62.3670 C   0  0  0  0  0  0  0  0  0  0  0  0
  -33.6548   56.7873   61.6883 C   0  0  0  0  0  0  0  0  0  0  0  0
  -38.5031   60.8714   62.7563 C   0  0  0  0  0  0  0  0  0  0  0  0
  -37.2094   61.4867   62.1722 C   0  0  0  0  0  0  0  0  0  0  0  0
  -35.9888   62.6962   65.4589 C   0  0  0  0  0  0  0  0  0  0  0  0
  -34.9707   63.5842   65.0870 C   0  0  0  0  0  0  0  0  0  0  0  0
  -36.7226   62.0124   64.4823 C   0  0  0  0  0  0  0  0  0  0  0  0
  -34.7035   63.7681   63.7305 C   0  0  0  0  0  0  0  0  0  0  0  0
  -35.4328   63.0781   62.7637 C   0  0  0  0  0  0  0  0  0  0  0  0
  -36.4356   62.1679   63.1215 C   0  0  0  0  0  0  0  0  0  0  0  0
  -33.7377   64.6106   63.2886 O   0  0  0  0  0  0  0  0  0  0  0  0
  -35.1310   63.2839   61.4490 O   0  0  0  0  0  0  0  0  0  0  0  0
  -33.2222   65.0955   63.9027 H   0  0  0  0  0  0  0  0  0  0  0  0
  -34.4597   63.8933   61.2123 H   0  0  0  0  0  0  0  0  0  0  0  0
 12 13  1  0  0  0
  9 10  2  0  0  0
  9  8  1  0  0  0
  6  7  2  0  0  0
  6  8  1  0  0  0
 10 11  1  0  0  0
  7  5  1  0  0  0
 16 17  2  0  0  0
 16 18  1  0  0  0
 17 19  1  0  0  0
 18 21  2  0  0  0
 13 11  1  0  0  0
  5  4  1  0  0  0
  4  3  1  0  0  0
  3  2  1  0  0  0
  2  1  1  0  0  0
  1 14  1  0  0  0
 14 15  1  0  0  0
 15 21  1  0  0  0
 19 20  2  0  0  0
 19 22  1  0  0  0
 20 21  1  0  0  0
 20 23  1  0  0  0
 22 24  1  0  0  0
 23 25  1  0  0  0
M  END
> <minimizedAffinity>
-7.42280

> <CNNscore>
0.2848526835

> <CNNaffinity>
5.8935823441

> <CNN_VS>
1.6788027287

> <CNNaffinity_variance>
0.2081182003

$$$$
/media/chris/experiments/cd1a-new-docking/inputs/ligands/5j1a_ligand.pdb


 25 25  0  0  0  0  0  0  0  0999 V2000
  -50.8898   59.4990   62.1696 C   0  0  0  0  0  0  0  0  0  0  0  0
  -50.9719   59.9629   63.6314 C   0  0  0  0  0  0  0  0  0  0  0  0
  -50.3538   58.9215   64.5542 C   0  0  0  0  0  0  0  0  0  0  0  0
  -50.3409   59.4562   65.9867 C   0  0  0  0  0  0  0  0  0  0  0  0
  -48.9075   59.5151   66.5141 C   0  0  0  0  0  0  0  0  0  0  0  0
  -46.8134   57.8879   66.7228 C   0  0  0  0  0  0  0  0  0  0  0  0
  -48.2798   58.1339   66.3174 C   0  0  0  0  0  0  0  0  0  0  0  0
  -45.9006   59.0223   67.2136 C   0  0  0  0  0  0  0  0  0  0  0  0
  -44.7225   59.1133   66.2327 C   0  0  0  0  0  0  0  0  0  0  0  0
  -44.8013   59.9508   64.9337 C   0  0  0  0  0  0  0  0  0  0  0  0
  -46.0553   60.7698   64.5699 C   0  0  0  0  0  0  0  0  0  0  0  0
  -46.5572   58.7870   63.0717 C   0  0  0  0  0  0  0  0  0  0  0  0
  -46.5148   60.3132   63.1785 C   0  0  0  0  0  0  0  0  0  0  0  0
  -49.6263   60.0135   61.4322 C   0  0  0  0  0  0  0  0  0  0  0  0
  -49.5889   59.6140   59.9380 C   0  0  0  0  0  0  0  0  0  0  0  0
  -46.2156   58.5483   58.8245 C   0  0  0  0  0  0  0  0  0  0  0  0
  -46.3266   57.1517   58.8419 C   0  0  0  0  0  0  0  0  0  0  0  0
  -47.3052   59.3492   59.1867 C   0  0  0  0  0  0  0  0  0  0  0  0
  -47.5383   56.5799   59.2293 C   0  0  0  0  0  0  0  0  0  0  0  0
  -48.6168   57.3831   59.5963 C   0  0  0  0  0  0  0  0  0  0  0  0
  -48.5120   58.7799   59.6086 C   0  0  0  0  0  0  0  0  0  0  0  0
  -47.7277   55.2382   59.2702 O   0  0  0  0  0  0  0  0  0  0  0  0
  -49.7801   56.7795   59.9757 O   0  0  0  0  0  0  0  0  0  0  0  0
  -47.0306   54.6592   59.0321 H   0  0  0  0  0  0  0  0  0  0  0  0
  -49.8476   55.8449   59.9666 H   0  0  0  0  0  0  0  0  0  0  0  0
 12 13  1  0  0  0
  9 10  2  0  0  0
  9  8  1  0  0  0
  6  7  2  0  0  0
  6  8  1  0  0  0
 10 11  1  0  0  0
  7  5  1  0  0  0
 16 17  2  0  0  0
 16 18  1  0  0  0
 17 19  1  0  0  0
 18 21  2  0  0  0
 13 11  1  0  0  0
  5  4  1  0  0  0
  4  3  1  0  0  0
  3  2  1  0  0  0
  2  1  1  0  0  0
  1 14  1  0  0  0
 14 15  1  0  0  0
 15 21  1  0  0  0
 19 20  2  0  0  0
 19 22  1  0  0  0
 20 21  1  0  0  0
 20 23  1  0  0  0
 22 24  1  0  0  0
 23 25  1  0  0  0
M  END
> <minimizedAffinity>
-7.62131

> <CNNscore>
0.2518000603

> <CNNaffinity>
6.3567667007

> <CNN_VS>
1.6006342173

> <CNNaffinity_variance>
0.2001831532

$$$$
/media/chris/experiments/cd1a-new-docking/inputs/ligands/5j1a_ligand.pdb


 25 25  0  0  0  0  0  0  0  0999 V2000
  -37.9898   58.5798   65.1236 C   0  0  0  0  0  0  0  0  0  0  0  0
  -37.2868   57.5272   64.2535 C   0  0  0  0  0  0  0  0  0  0  0  0
  -36.3076   58.1961   63.2986 C   0  0  0  0  0  0  0  0  0  0  0  0
  -36.5479   57.6783   61.8801 C   0  0  0  0  0  0  0  0  0  0  0  0
  -37.8264   56.8418   61.8342 C   0  0  0  0  0  0  0  0  0  0  0  0
  -40.3908   57.4266   61.4359 C   0  0  0  0  0  0  0  0  0  0  0  0
  -38.9007   57.6685   61.1251 C   0  0  0  0  0  0  0  0  0  0  0  0
  -40.8588   56.2878   62.3551 C   0  0  0  0  0  0  0  0  0  0  0  0
  -40.9000   56.8467   63.7848 C   0  0  0  0  0  0  0  0  0  0  0  0
  -42.2346   57.1339   64.5137 C   0  0  0  0  0  0  0  0  0  0  0  0
  -43.5981   56.8410   63.8575 C   0  0  0  0  0  0  0  0  0  0  0  0
  -44.0934   58.1148   61.7220 C   0  0  0  0  0  0  0  0  0  0  0  0
  -44.1087   58.1556   63.2519 C   0  0  0  0  0  0  0  0  0  0  0  0
  -37.5991   60.0361   64.7612 C   0  0  0  0  0  0  0  0  0  0  0  0
  -37.2955   60.9109   66.0006 C   0  0  0  0  0  0  0  0  0  0  0  0
  -34.2720   62.4362   64.4884 C   0  0  0  0  0  0  0  0  0  0  0  0
  -33.8603   63.3282   65.4874 C   0  0  0  0  0  0  0  0  0  0  0  0
  -35.4088   61.6408   64.6748 C   0  0  0  0  0  0  0  0  0  0  0  0
  -34.6058   63.4088   66.6633 C   0  0  0  0  0  0  0  0  0  0  0  0
  -35.7413   62.6196   66.8392 C   0  0  0  0  0  0  0  0  0  0  0  0
  -36.1792   61.7426   65.8387 C   0  0  0  0  0  0  0  0  0  0  0  0
  -34.2731   64.2439   67.6781 O   0  0  0  0  0  0  0  0  0  0  0  0
  -36.4438   62.7379   68.0030 O   0  0  0  0  0  0  0  0  0  0  0  0
  -33.5176   64.7933   67.6040 H   0  0  0  0  0  0  0  0  0  0  0  0
  -36.1487   63.3253   68.6707 H   0  0  0  0  0  0  0  0  0  0  0  0
 12 13  1  0  0  0
  9 10  2  0  0  0
  9  8  1  0  0  0
  6  7  2  0  0  0
  6  8  1  0  0  0
 10 11  1  0  0  0
  7  5  1  0  0  0
 16 17  2  0  0  0
 16 18  1  0  0  0
 17 19  1  0  0  0
 18 21  2  0  0  0
 13 11  1  0  0  0
  5  4  1  0  0  0
  4  3  1  0  0  0
  3  2  1  0  0  0
  2  1  1  0  0  0
  1 14  1  0  0  0
 14 15  1  0  0  0
 15 21  1  0  0  0
 19 20  2  0  0  0
 19 22  1  0  0  0
 20 21  1  0  0  0
 20 23  1  0  0  0
 22 24  1  0  0  0
 23 25  1  0  0  0
M  END
> <minimizedAffinity>
-7.47152

> <CNNscore>
0.2230610549

> <CNNaffinity>
5.7478814125

> <CNN_VS>
1.2821284533

> <CNNaffinity_variance>
0.1573051214

$$$$
