/media/chris/experiments/cd1a-new-docking/inputs/ligands/5j1a_ligand.pdb


 25 25  0  0  0  0  0  0  0  0999 V2000
  -46.8036   59.7450   60.0110 C   0  0  0  0  0  0  0  0  0  0  0  0
  -47.0126   59.7241   58.4895 C   0  0  0  0  0  0  0  0  0  0  0  0
  -46.5761   58.3846   57.9121 C   0  0  0  0  0  0  0  0  0  0  0  0
  -46.4342   57.3661   59.0437 C   0  0  0  0  0  0  0  0  0  0  0  0
  -47.4570   56.2430   58.8731 C   0  0  0  0  0  0  0  0  0  0  0  0
  -49.8501   57.3456   59.2381 C   0  0  0  0  0  0  0  0  0  0  0  0
  -48.7333   56.8570   58.2951 C   0  0  0  0  0  0  0  0  0  0  0  0
  -49.7884   57.1290   60.7580 C   0  0  0  0  0  0  0  0  0  0  0  0
  -50.6466   58.2244   61.4076 C   0  0  0  0  0  0  0  0  0  0  0  0
  -50.3267   58.7902   62.8119 C   0  0  0  0  0  0  0  0  0  0  0  0
  -49.1066   58.3106   63.6225 C   0  0  0  0  0  0  0  0  0  0  0  0
  -50.4566   59.4572   65.4367 C   0  0  0  0  0  0  0  0  0  0  0  0
  -49.5139   58.2986   65.1022 C   0  0  0  0  0  0  0  0  0  0  0  0
  -47.2332   61.0807   60.6713 C   0  0  0  0  0  0  0  0  0  0  0  0
  -46.9261   61.1368   62.1865 C   0  0  0  0  0  0  0  0  0  0  0  0
  -43.5003   62.5410   61.9683 C   0  0  0  0  0  0  0  0  0  0  0  0
  -42.8173   61.8062   62.9465 C   0  0  0  0  0  0  0  0  0  0  0  0
  -44.8590   62.3053   61.7264 C   0  0  0  0  0  0  0  0  0  0  0  0
  -43.5175   60.8428   63.6724 C   0  0  0  0  0  0  0  0  0  0  0  0
  -44.8721   60.6187   63.4320 C   0  0  0  0  0  0  0  0  0  0  0  0
  -45.5736   61.3636   62.4754 C   0  0  0  0  0  0  0  0  0  0  0  0
  -42.9296   60.0886   64.6333 O   0  0  0  0  0  0  0  0  0  0  0  0
  -45.5178   59.6715   64.1720 O   0  0  0  0  0  0  0  0  0  0  0  0
  -42.0207   60.2045   64.8292 H   0  0  0  0  0  0  0  0  0  0  0  0
  -45.0461   59.1745   64.8112 H   0  0  0  0  0  0  0  0  0  0  0  0
 12 13  1  0  0  0
  9 10  2  0  0  0
  9  8  1  0  0  0
  6  7  2  0  0  0
  6  8  1  0  0  0
 10 11  1  0  0  0
  7  5  1  0  0  0
 16 17  2  0  0  0
 16 18  1  0  0  0
 17 19  1  0  0  0
 18 21  2  0  0  0
 13 11  1  0  0  0
  5  4  1  0  0  0
  4  3  1  0  0  0
  3  2  1  0  0  0
  2  1  1  0  0  0
  1 14  1  0  0  0
 14 15  1  0  0  0
 15 21  1  0  0  0
 19 20  2  0  0  0
 19 22  1  0  0  0
 20 21  1  0  0  0
 20 23  1  0  0  0
 22 24  1  0  0  0
 23 25  1  0  0  0
M  END
> <minimizedAffinity>
-7.66228

> <CNNscore>
0.7177443504

> <CNNaffinity>
6.5810203552

> <CNN_VS>
4.7234902382

> <CNNaffinity_variance>
0.1124256849

$$$$
/media/chris/experiments/cd1a-new-docking/inputs/ligands/5j1a_ligand.pdb


 25 25  0  0  0  0  0  0  0  0999 V2000
  -50.2447   57.5525   59.5866 C   0  0  0  0  0  0  0  0  0  0  0  0
  -49.3143   56.3592   59.3232 C   0  0  0  0  0  0  0  0  0  0  0  0
  -48.3330   56.6877   58.2064 C   0  0  0  0  0  0  0  0  0  0  0  0
  -46.9031   56.5408   58.7276 C   0  0  0  0  0  0  0  0  0  0  0  0
  -46.0460   57.7138   58.2521 C   0  0  0  0  0  0  0  0  0  0  0  0
  -47.3445   59.9761   58.7727 C   0  0  0  0  0  0  0  0  0  0  0  0
  -46.9898   58.8310   57.8041 C   0  0  0  0  0  0  0  0  0  0  0  0
  -46.8785   59.9811   60.2368 C   0  0  0  0  0  0  0  0  0  0  0  0
  -47.1799   61.3760   60.8041 C   0  0  0  0  0  0  0  0  0  0  0  0
  -46.3297   62.0008   61.9361 C   0  0  0  0  0  0  0  0  0  0  0  0
  -45.1100   61.2718   62.5331 C   0  0  0  0  0  0  0  0  0  0  0  0
  -42.8607   62.1850   61.8013 C   0  0  0  0  0  0  0  0  0  0  0  0
  -44.0235   62.3259   62.7867 C   0  0  0  0  0  0  0  0  0  0  0  0
  -50.7077   57.6556   61.0631 C   0  0  0  0  0  0  0  0  0  0  0  0
  -49.5333   57.7916   62.0609 C   0  0  0  0  0  0  0  0  0  0  0  0
  -51.1761   60.2874   64.2582 C   0  0  0  0  0  0  0  0  0  0  0  0
  -50.4979   60.1049   65.4706 C   0  0  0  0  0  0  0  0  0  0  0  0
  -50.8428   59.5164   63.1381 C   0  0  0  0  0  0  0  0  0  0  0  0
  -49.4918   59.1413   65.5379 C   0  0  0  0  0  0  0  0  0  0  0  0
  -49.1704   58.3716   64.4211 C   0  0  0  0  0  0  0  0  0  0  0  0
  -49.8575   58.5252   63.2102 C   0  0  0  0  0  0  0  0  0  0  0  0
  -48.7874   58.9053   66.6719 O   0  0  0  0  0  0  0  0  0  0  0  0
  -48.1844   57.4355   64.5360 O   0  0  0  0  0  0  0  0  0  0  0  0
  -48.9689   59.3987   67.4474 H   0  0  0  0  0  0  0  0  0  0  0  0
  -47.7263   57.3348   65.3472 H   0  0  0  0  0  0  0  0  0  0  0  0
 12 13  1  0  0  0
  9 10  2  0  0  0
  9  8  1  0  0  0
  6  7  2  0  0  0
  6  8  1  0  0  0
 10 11  1  0  0  0
  7  5  1  0  0  0
 16 17  2  0  0  0
 16 18  1  0  0  0
 17 19  1  0  0  0
 18 21  2  0  0  0
 13 11  1  0  0  0
  5  4  1  0  0  0
  4  3  1  0  0  0
  3  2  1  0  0  0
  2  1  1  0  0  0
  1 14  1  0  0  0
 14 15  1  0  0  0
 15 21  1  0  0  0
 19 20  2  0  0  0
 19 22  1  0  0  0
 20 21  1  0  0  0
 20 23  1  0  0  0
 22 24  1  0  0  0
 23 25  1  0  0  0
M  END
> <minimizedAffinity>
-8.37334

> <CNNscore>
0.5954352617

> <CNNaffinity>
6.6293168068

> <CNN_VS>
3.9473290443

> <CNNaffinity_variance>
0.1163273454

$$$$
/media/chris/experiments/cd1a-new-docking/inputs/ligands/5j1a_ligand.pdb


 25 25  0  0  0  0  0  0  0  0999 V2000
  -47.7265   57.8583   58.7579 C   0  0  0  0  0  0  0  0  0  0  0  0
  -48.2156   56.6455   59.5635 C   0  0  0  0  0  0  0  0  0  0  0  0
  -49.6791   56.8178   59.9463 C   0  0  0  0  0  0  0  0  0  0  0  0
  -49.8918   58.2185   60.5216 C   0  0  0  0  0  0  0  0  0  0  0  0
  -49.9174   58.1624   62.0490 C   0  0  0  0  0  0  0  0  0  0  0  0
  -50.7582   59.7059   64.0455 C   0  0  0  0  0  0  0  0  0  0  0  0
  -50.7460   59.3479   62.5465 C   0  0  0  0  0  0  0  0  0  0  0  0
  -50.0570   58.8344   65.0989 C   0  0  0  0  0  0  0  0  0  0  0  0
  -49.5657   59.7733   66.2104 C   0  0  0  0  0  0  0  0  0  0  0  0
  -48.2229   60.5350   66.1047 C   0  0  0  0  0  0  0  0  0  0  0  0
  -47.3200   60.4214   64.8609 C   0  0  0  0  0  0  0  0  0  0  0  0
  -44.9775   59.8075   65.6123 C   0  0  0  0  0  0  0  0  0  0  0  0
  -46.3263   59.2800   65.1170 C   0  0  0  0  0  0  0  0  0  0  0  0
  -46.3222   58.3555   59.1887 C   0  0  0  0  0  0  0  0  0  0  0  0
  -46.1324   58.3869   60.7237 C   0  0  0  0  0  0  0  0  0  0  0  0
  -46.6860   61.9717   61.4975 C   0  0  0  0  0  0  0  0  0  0  0  0
  -45.5012   62.3166   62.1613 C   0  0  0  0  0  0  0  0  0  0  0  0
  -46.8782   60.6679   61.0248 C   0  0  0  0  0  0  0  0  0  0  0  0
  -44.5247   61.3375   62.3431 C   0  0  0  0  0  0  0  0  0  0  0  0
  -44.7259   60.0394   61.8768 C   0  0  0  0  0  0  0  0  0  0  0  0
  -45.9159   59.6738   61.2346 C   0  0  0  0  0  0  0  0  0  0  0  0
  -43.3510   61.5909   62.9722 O   0  0  0  0  0  0  0  0  0  0  0  0
  -43.7460   59.1128   62.0843 O   0  0  0  0  0  0  0  0  0  0  0  0
  -43.1721   62.4494   63.3022 H   0  0  0  0  0  0  0  0  0  0  0  0
  -42.9509   59.3599   62.5141 H   0  0  0  0  0  0  0  0  0  0  0  0
 12 13  1  0  0  0
  9 10  2  0  0  0
  9  8  1  0  0  0
  6  7  2  0  0  0
  6  8  1  0  0  0
 10 11  1  0  0  0
  7  5  1  0  0  0
 16 17  2  0  0  0
 16 18  1  0  0  0
 17 19  1  0  0  0
 18 21  2  0  0  0
 13 11  1  0  0  0
  5  4  1  0  0  0
  4  3  1  0  0  0
  3  2  1  0  0  0
  2  1  1  0  0  0
  1 14  1  0  0  0
 14 15  1  0  0  0
 15 21  1  0  0  0
 19 20  2  0  0  0
 19 22  1  0  0  0
 20 21  1  0  0  0
 20 23  1  0  0  0
 22 24  1  0  0  0
 23 25  1  0  0  0
M  END
> <minimizedAffinity>
-7.05084

> <CNNscore>
0.5088793635

> <CNNaffinity>
6.4062056541

> <CNN_VS>
3.2599859238

> <CNNaffinity_variance>
0.1627646983

$$$$
/media/chris/experiments/cd1a-new-docking/inputs/ligands/5j1a_ligand.pdb


 25 25  0  0  0  0  0  0  0  0999 V2000
  -48.3125   56.7623   59.7834 C   0  0  0  0  0  0  0  0  0  0  0  0
  -49.6781   57.1810   59.2188 C   0  0  0  0  0  0  0  0  0  0  0  0
  -50.5883   57.6683   60.3378 C   0  0  0  0  0  0  0  0  0  0  0  0
  -49.7641   57.8746   61.6090 C   0  0  0  0  0  0  0  0  0  0  0  0
  -49.7269   59.3576   61.9778 C   0  0  0  0  0  0  0  0  0  0  0  0
  -51.1768   60.0955   64.0823 C   0  0  0  0  0  0  0  0  0  0  0  0
  -51.0806   59.7211   62.5904 C   0  0  0  0  0  0  0  0  0  0  0  0
  -49.9692   60.0010   65.0275 C   0  0  0  0  0  0  0  0  0  0  0  0
  -50.1247   58.7035   65.8340 C   0  0  0  0  0  0  0  0  0  0  0  0
  -48.9999   57.6431   65.9041 C   0  0  0  0  0  0  0  0  0  0  0  0
  -47.6458   57.8470   65.1968 C   0  0  0  0  0  0  0  0  0  0  0  0
  -46.0883   59.7526   65.8058 C   0  0  0  0  0  0  0  0  0  0  0  0
  -46.6627   58.4010   66.2371 C   0  0  0  0  0  0  0  0  0  0  0  0
  -47.2813   56.3932   58.6855 C   0  0  0  0  0  0  0  0  0  0  0  0
  -46.3254   57.5573   58.3326 C   0  0  0  0  0  0  0  0  0  0  0  0
  -47.5359   60.9254   59.3055 C   0  0  0  0  0  0  0  0  0  0  0  0
  -46.9388   61.1023   60.5606 C   0  0  0  0  0  0  0  0  0  0  0  0
  -47.3203   59.7481   58.5792 C   0  0  0  0  0  0  0  0  0  0  0  0
  -46.1327   60.0842   61.0695 C   0  0  0  0  0  0  0  0  0  0  0  0
  -45.9286   58.9113   60.3445 C   0  0  0  0  0  0  0  0  0  0  0  0
  -46.5399   58.7099   59.1004 C   0  0  0  0  0  0  0  0  0  0  0  0
  -45.5176   60.1787   62.2738 O   0  0  0  0  0  0  0  0  0  0  0  0
  -45.1384   57.9393   60.8856 O   0  0  0  0  0  0  0  0  0  0  0  0
  -45.6260   60.9490   62.7962 H   0  0  0  0  0  0  0  0  0  0  0  0
  -44.7307   58.0765   61.7181 H   0  0  0  0  0  0  0  0  0  0  0  0
 12 13  1  0  0  0
  9 10  2  0  0  0
  9  8  1  0  0  0
  6  7  2  0  0  0
  6  8  1  0  0  0
 10 11  1  0  0  0
  7  5  1  0  0  0
 16 17  2  0  0  0
 16 18  1  0  0  0
 17 19  1  0  0  0
 18 21  2  0  0  0
 13 11  1  0  0  0
  5  4  1  0  0  0
  4  3  1  0  0  0
  3  2  1  0  0  0
  2  1  1  0  0  0
  1 14  1  0  0  0
 14 15  1  0  0  0
 15 21  1  0  0  0
 19 20  2  0  0  0
 19 22  1  0  0  0
 20 21  1  0  0  0
 20 23  1  0  0  0
 22 24  1  0  0  0
 23 25  1  0  0  0
M  END
> <minimizedAffinity>
-8.02444

> <CNNscore>
0.5043464899

> <CNNaffinity>
6.5396165848

> <CNN_VS>
3.2982325554

> <CNNaffinity_variance>
0.3284994960

$$$$
/media/chris/experiments/cd1a-new-docking/inputs/ligands/5j1a_ligand.pdb


 25 25  0  0  0  0  0  0  0  0999 V2000
  -50.0237   58.2358   58.8164 C   0  0  0  0  0  0  0  0  0  0  0  0
  -50.4846   57.5553   60.1140 C   0  0  0  0  0  0  0  0  0  0  0  0
  -49.7709   58.1623   61.3141 C   0  0  0  0  0  0  0  0  0  0  0  0
  -50.8015   58.7875   62.2549 C   0  0  0  0  0  0  0  0  0  0  0  0
  -50.1526   59.8935   63.0869 C   0  0  0  0  0  0  0  0  0  0  0  0
  -50.4452   59.4690   65.6964 C   0  0  0  0  0  0  0  0  0  0  0  0
  -50.9695   60.0535   64.3702 C   0  0  0  0  0  0  0  0  0  0  0  0
  -49.1718   58.6119   65.7643 C   0  0  0  0  0  0  0  0  0  0  0  0
  -47.9782   59.5764   65.8212 C   0  0  0  0  0  0  0  0  0  0  0  0
  -46.7668   59.3260   66.7510 C   0  0  0  0  0  0  0  0  0  0  0  0
  -46.6745   58.0747   67.6462 C   0  0  0  0  0  0  0  0  0  0  0  0
  -44.6646   57.3135   66.3011 C   0  0  0  0  0  0  0  0  0  0  0  0
  -46.0648   56.9485   66.8003 C   0  0  0  0  0  0  0  0  0  0  0  0
  -48.6562   57.7153   58.3027 C   0  0  0  0  0  0  0  0  0  0  0  0
  -47.6311   58.8460   58.0493 C   0  0  0  0  0  0  0  0  0  0  0  0
  -45.5082   58.6565   61.0846 C   0  0  0  0  0  0  0  0  0  0  0  0
  -45.5961   59.9611   61.5881 C   0  0  0  0  0  0  0  0  0  0  0  0
  -46.1903   58.3023   59.9144 C   0  0  0  0  0  0  0  0  0  0  0  0
  -46.3705   60.8949   60.8999 C   0  0  0  0  0  0  0  0  0  0  0  0
  -47.0407   60.5377   59.7310 C   0  0  0  0  0  0  0  0  0  0  0  0
  -46.9410   59.2445   59.2021 C   0  0  0  0  0  0  0  0  0  0  0  0
  -46.5088   62.1756   61.3221 O   0  0  0  0  0  0  0  0  0  0  0  0
  -47.7802   61.4866   59.0873 O   0  0  0  0  0  0  0  0  0  0  0  0
  -46.0765   62.4608   62.1030 H   0  0  0  0  0  0  0  0  0  0  0  0
  -47.8452   62.3510   59.4432 H   0  0  0  0  0  0  0  0  0  0  0  0
 12 13  1  0  0  0
  9 10  2  0  0  0
  9  8  1  0  0  0
  6  7  2  0  0  0
  6  8  1  0  0  0
 10 11  1  0  0  0
  7  5  1  0  0  0
 16 17  2  0  0  0
 16 18  1  0  0  0
 17 19  1  0  0  0
 18 21  2  0  0  0
 13 11  1  0  0  0
  5  4  1  0  0  0
  4  3  1  0  0  0
  3  2  1  0  0  0
  2  1  1  0  0  0
  1 14  1  0  0  0
 14 15  1  0  0  0
 15 21  1  0  0  0
 19 20  2  0  0  0
 19 22  1  0  0  0
 20 21  1  0  0  0
 20 23  1  0  0  0
 22 24  1  0  0  0
 23 25  1  0  0  0
M  END
> <minimizedAffinity>
-8.05668

> <CNNscore>
0.4800780416

> <CNNaffinity>
6.4843316078

> <CNN_VS>
3.1129851341

> <CNNaffinity_variance>
0.3363697231

$$$$
/media/chris/experiments/cd1a-new-docking/inputs/ligands/5j1a_ligand.pdb


 25 25  0  0  0  0  0  0  0  0999 V2000
  -49.0653   59.4567   66.2653 C   0  0  0  0  0  0  0  0  0  0  0  0
  -50.3598   59.7789   65.5038 C   0  0  0  0  0  0  0  0  0  0  0  0
  -50.4215   58.9885   64.2040 C   0  0  0  0  0  0  0  0  0  0  0  0
  -50.8794   59.9085   63.0717 C   0  0  0  0  0  0  0  0  0  0  0  0
  -50.1532   59.5500   61.7753 C   0  0  0  0  0  0  0  0  0  0  0  0
  -50.1668   57.4453   60.1487 C   0  0  0  0  0  0  0  0  0  0  0  0
  -50.2901   58.0411   61.5647 C   0  0  0  0  0  0  0  0  0  0  0  0
  -50.0299   58.3297   58.8997 C   0  0  0  0  0  0  0  0  0  0  0  0
  -49.1885   57.5480   57.8802 C   0  0  0  0  0  0  0  0  0  0  0  0
  -47.6744   57.8092   57.6960 C   0  0  0  0  0  0  0  0  0  0  0  0
  -46.9186   58.8446   58.5516 C   0  0  0  0  0  0  0  0  0  0  0  0
  -46.2617   58.2213   60.9198 C   0  0  0  0  0  0  0  0  0  0  0  0
  -45.9258   58.0751   59.4336 C   0  0  0  0  0  0  0  0  0  0  0  0
  -47.8466   60.2851   65.7822 C   0  0  0  0  0  0  0  0  0  0  0  0
  -47.0548   59.5962   64.6456 C   0  0  0  0  0  0  0  0  0  0  0  0
  -46.1510   62.0631   62.0277 C   0  0  0  0  0  0  0  0  0  0  0  0
  -44.7753   62.2261   62.2383 C   0  0  0  0  0  0  0  0  0  0  0  0
  -46.8906   61.1865   62.8306 C   0  0  0  0  0  0  0  0  0  0  0  0
  -44.1631   61.5029   63.2617 C   0  0  0  0  0  0  0  0  0  0  0  0
  -44.9069   60.6378   64.0625 C   0  0  0  0  0  0  0  0  0  0  0  0
  -46.2872   60.4845   63.8803 C   0  0  0  0  0  0  0  0  0  0  0  0
  -42.8376   61.6022   63.5282 O   0  0  0  0  0  0  0  0  0  0  0  0
  -44.2667   59.9570   65.0567 O   0  0  0  0  0  0  0  0  0  0  0  0
  -42.2980   62.1714   63.0157 H   0  0  0  0  0  0  0  0  0  0  0  0
  -43.3432   60.0613   65.1765 H   0  0  0  0  0  0  0  0  0  0  0  0
 12 13  1  0  0  0
  9 10  2  0  0  0
  9  8  1  0  0  0
  6  7  2  0  0  0
  6  8  1  0  0  0
 10 11  1  0  0  0
  7  5  1  0  0  0
 16 17  2  0  0  0
 16 18  1  0  0  0
 17 19  1  0  0  0
 18 21  2  0  0  0
 13 11  1  0  0  0
  5  4  1  0  0  0
  4  3  1  0  0  0
  3  2  1  0  0  0
  2  1  1  0  0  0
  1 14  1  0  0  0
 14 15  1  0  0  0
 15 21  1  0  0  0
 19 20  2  0  0  0
 19 22  1  0  0  0
 20 21  1  0  0  0
 20 23  1  0  0  0
 22 24  1  0  0  0
 23 25  1  0  0  0
M  END
> <minimizedAffinity>
-7.64057

> <CNNscore>
0.4777111411

> <CNNaffinity>
6.3007955551

> <CNN_VS>
3.0099601746

> <CNNaffinity_variance>
0.2129041702

$$$$
/media/chris/experiments/cd1a-new-docking/inputs/ligands/5j1a_ligand.pdb


 25 25  0  0  0  0  0  0  0  0999 V2000
  -49.9528   58.5162   64.9679 C   0  0  0  0  0  0  0  0  0  0  0  0
  -50.2778   59.0647   63.5705 C   0  0  0  0  0  0  0  0  0  0  0  0
  -49.8691   58.0632   62.4990 C   0  0  0  0  0  0  0  0  0  0  0  0
  -50.1240   58.6660   61.1171 C   0  0  0  0  0  0  0  0  0  0  0  0
  -50.4200   57.5586   60.1058 C   0  0  0  0  0  0  0  0  0  0  0  0
  -48.4404   55.9243   59.4085 C   0  0  0  0  0  0  0  0  0  0  0  0
  -49.5054   56.3753   60.4272 C   0  0  0  0  0  0  0  0  0  0  0  0
  -48.3353   56.5463   58.0075 C   0  0  0  0  0  0  0  0  0  0  0  0
  -46.8539   56.8700   57.7648 C   0  0  0  0  0  0  0  0  0  0  0  0
  -46.2282   58.2168   58.1996 C   0  0  0  0  0  0  0  0  0  0  0  0
  -47.0494   59.2950   58.9335 C   0  0  0  0  0  0  0  0  0  0  0  0
  -46.3143   58.4146   61.1947 C   0  0  0  0  0  0  0  0  0  0  0  0
  -46.3195   59.6151   60.2451 C   0  0  0  0  0  0  0  0  0  0  0  0
  -49.4175   59.5972   65.9424 C   0  0  0  0  0  0  0  0  0  0  0  0
  -48.4964   60.6331   65.2555 C   0  0  0  0  0  0  0  0  0  0  0  0
  -45.2936   59.2847   66.5516 C   0  0  0  0  0  0  0  0  0  0  0  0
  -44.3837   59.6856   65.5644 C   0  0  0  0  0  0  0  0  0  0  0  0
  -46.6507   59.6090   66.4365 C   0  0  0  0  0  0  0  0  0  0  0  0
  -44.8572   60.4073   64.4690 C   0  0  0  0  0  0  0  0  0  0  0  0
  -46.2110   60.7200   64.3567 C   0  0  0  0  0  0  0  0  0  0  0  0
  -47.1359   60.3036   65.3227 C   0  0  0  0  0  0  0  0  0  0  0  0
  -44.0421   60.8337   63.4733 O   0  0  0  0  0  0  0  0  0  0  0  0
  -46.6298   61.4212   63.2636 O   0  0  0  0  0  0  0  0  0  0  0  0
  -43.1246   60.6467   63.5065 H   0  0  0  0  0  0  0  0  0  0  0  0
  -46.0091   61.6986   62.6188 H   0  0  0  0  0  0  0  0  0  0  0  0
 12 13  1  0  0  0
  9 10  2  0  0  0
  9  8  1  0  0  0
  6  7  2  0  0  0
  6  8  1  0  0  0
 10 11  1  0  0  0
  7  5  1  0  0  0
 16 17  2  0  0  0
 16 18  1  0  0  0
 17 19  1  0  0  0
 18 21  2  0  0  0
 13 11  1  0  0  0
  5  4  1  0  0  0
  4  3  1  0  0  0
  3  2  1  0  0  0
  2  1  1  0  0  0
  1 14  1  0  0  0
 14 15  1  0  0  0
 15 21  1  0  0  0
 19 20  2  0  0  0
 19 22  1  0  0  0
 20 21  1  0  0  0
 20 23  1  0  0  0
 22 24  1  0  0  0
 23 25  1  0  0  0
M  END
> <minimizedAffinity>
-7.54511

> <CNNscore>
0.4597987235

> <CNNaffinity>
6.3366518021

> <CNN_VS>
2.9135844707

> <CNNaffinity_variance>
0.1507373750

$$$$
/media/chris/experiments/cd1a-new-docking/inputs/ligands/5j1a_ligand.pdb


 25 25  0  0  0  0  0  0  0  0999 V2000
  -46.7590   61.8901   61.5540 C   0  0  0  0  0  0  0  0  0  0  0  0
  -45.2303   61.9631   61.6838 C   0  0  0  0  0  0  0  0  0  0  0  0
  -44.8024   61.6348   63.1076 C   0  0  0  0  0  0  0  0  0  0  0  0
  -46.0353   61.2793   63.9391 C   0  0  0  0  0  0  0  0  0  0  0  0
  -46.0158   59.7945   64.3020 C   0  0  0  0  0  0  0  0  0  0  0  0
  -46.1649   58.9712   66.8270 C   0  0  0  0  0  0  0  0  0  0  0  0
  -45.3862   59.6606   65.6896 C   0  0  0  0  0  0  0  0  0  0  0  0
  -47.6210   58.5110   66.6576 C   0  0  0  0  0  0  0  0  0  0  0  0
  -48.5124   59.7469   66.8477 C   0  0  0  0  0  0  0  0  0  0  0  0
  -49.7921   59.9706   66.0068 C   0  0  0  0  0  0  0  0  0  0  0  0
  -50.2629   58.9465   64.9556 C   0  0  0  0  0  0  0  0  0  0  0  0
  -51.0033   59.2931   62.5556 C   0  0  0  0  0  0  0  0  0  0  0  0
  -49.8795   59.4960   63.5748 C   0  0  0  0  0  0  0  0  0  0  0  0
  -47.2319   61.2058   60.2452 C   0  0  0  0  0  0  0  0  0  0  0  0
  -47.9614   59.8635   60.4897 C   0  0  0  0  0  0  0  0  0  0  0  0
  -46.2460   58.1170   57.7035 C   0  0  0  0  0  0  0  0  0  0  0  0
  -46.6585   56.7907   57.8883 C   0  0  0  0  0  0  0  0  0  0  0  0
  -46.6887   59.1228   58.5709 C   0  0  0  0  0  0  0  0  0  0  0  0
  -47.5118   56.4954   58.9513 C   0  0  0  0  0  0  0  0  0  0  0  0
  -47.9424   57.5005   59.8158 C   0  0  0  0  0  0  0  0  0  0  0  0
  -47.5176   58.8260   59.6587 C   0  0  0  0  0  0  0  0  0  0  0  0
  -47.9580   55.2391   59.1966 O   0  0  0  0  0  0  0  0  0  0  0  0
  -48.7705   57.1634   60.8466 O   0  0  0  0  0  0  0  0  0  0  0  0
  -47.6947   54.5317   58.6415 H   0  0  0  0  0  0  0  0  0  0  0  0
  -49.0532   56.2760   60.9494 H   0  0  0  0  0  0  0  0  0  0  0  0
 12 13  1  0  0  0
  9 10  2  0  0  0
  9  8  1  0  0  0
  6  7  2  0  0  0
  6  8  1  0  0  0
 10 11  1  0  0  0
  7  5  1  0  0  0
 16 17  2  0  0  0
 16 18  1  0  0  0
 17 19  1  0  0  0
 18 21  2  0  0  0
 13 11  1  0  0  0
  5  4  1  0  0  0
  4  3  1  0  0  0
  3  2  1  0  0  0
  2  1  1  0  0  0
  1 14  1  0  0  0
 14 15  1  0  0  0
 15 21  1  0  0  0
 19 20  2  0  0  0
 19 22  1  0  0  0
 20 21  1  0  0  0
 20 23  1  0  0  0
 22 24  1  0  0  0
 23 25  1  0  0  0
M  END
> <minimizedAffinity>
-7.45631

> <CNNscore>
0.3714254797

> <CNNaffinity>
6.4952039719

> <CNN_VS>
2.4124841690

> <CNNaffinity_variance>
0.1766423732

$$$$
/media/chris/experiments/cd1a-new-docking/inputs/ligands/5j1a_ligand.pdb


 25 25  0  0  0  0  0  0  0  0999 V2000
  -39.1690   58.2261   64.6281 C   0  0  0  0  0  0  0  0  0  0  0  0
  -40.3217   59.1966   64.3304 C   0  0  0  0  0  0  0  0  0  0  0  0
  -40.9090   58.9168   62.9539 C   0  0  0  0  0  0  0  0  0  0  0  0
  -40.8283   60.1830   62.1006 C   0  0  0  0  0  0  0  0  0  0  0  0
  -39.4482   60.2949   61.4531 C   0  0  0  0  0  0  0  0  0  0  0  0
  -38.0317   58.2043   60.6173 C   0  0  0  0  0  0  0  0  0  0  0  0
  -39.2776   59.1048   60.5074 C   0  0  0  0  0  0  0  0  0  0  0  0
  -36.8730   58.5265   61.5735 C   0  0  0  0  0  0  0  0  0  0  0  0
  -36.3816   57.1934   62.1563 C   0  0  0  0  0  0  0  0  0  0  0  0
  -34.8977   56.7618   62.0753 C   0  0  0  0  0  0  0  0  0  0  0  0
  -33.8231   57.6630   61.4363 C   0  0  0  0  0  0  0  0  0  0  0  0
  -31.9137   59.1985   62.0883 C   0  0  0  0  0  0  0  0  0  0  0  0
  -33.1791   58.4808   62.5643 C   0  0  0  0  0  0  0  0  0  0  0  0
  -37.8525   58.9411   65.0285 C   0  0  0  0  0  0  0  0  0  0  0  0
  -37.9376   60.4816   64.9136 C   0  0  0  0  0  0  0  0  0  0  0  0
  -34.6217   61.7624   63.8550 C   0  0  0  0  0  0  0  0  0  0  0  0
  -34.1211   62.3049   65.0458 C   0  0  0  0  0  0  0  0  0  0  0  0
  -35.8850   61.1593   63.8284 C   0  0  0  0  0  0  0  0  0  0  0  0
  -34.9057   62.2349   66.1968 C   0  0  0  0  0  0  0  0  0  0  0  0
  -36.1659   61.6401   66.1615 C   0  0  0  0  0  0  0  0  0  0  0  0
  -36.6898   61.1169   64.9725 C   0  0  0  0  0  0  0  0  0  0  0  0
  -34.4932   62.7334   67.3881 O   0  0  0  0  0  0  0  0  0  0  0  0
  -36.9011   61.6015   67.3103 O   0  0  0  0  0  0  0  0  0  0  0  0
  -33.6530   63.1421   67.4592 H   0  0  0  0  0  0  0  0  0  0  0  0
  -36.5483   61.9522   68.1044 H   0  0  0  0  0  0  0  0  0  0  0  0
 12 13  1  0  0  0
  9 10  2  0  0  0
  9  8  1  0  0  0
  6  7  2  0  0  0
  6  8  1  0  0  0
 10 11  1  0  0  0
  7  5  1  0  0  0
 16 17  2  0  0  0
 16 18  1  0  0  0
 17 19  1  0  0  0
 18 21  2  0  0  0
 13 11  1  0  0  0
  5  4  1  0  0  0
  4  3  1  0  0  0
  3  2  1  0  0  0
  2  1  1  0  0  0
  1 14  1  0  0  0
 14 15  1  0  0  0
 15 21  1  0  0  0
 19 20  2  0  0  0
 19 22  1  0  0  0
 20 21  1  0  0  0
 20 23  1  0  0  0
 22 24  1  0  0  0
 23 25  1  0  0  0
M  END
> <minimizedAffinity>
-7.06209

> <CNNscore>
0.3594546318

> <CNNaffinity>
6.1158885956

> <CNN_VS>
2.1983845234

> <CNNaffinity_variance>
0.1662407815

$$$$
