/media/chris/experiments/cd1a-new-docking/inputs/ligands/5j1a_ligand.pdb


 25 25  0  0  0  0  0  0  0  0999 V2000
  -49.3739   59.3931   62.2190 C   0  0  0  0  0  0  0  0  0  0  0  0
  -50.8816   59.3922   62.5122 C   0  0  0  0  0  0  0  0  0  0  0  0
  -51.1777   60.1944   63.7719 C   0  0  0  0  0  0  0  0  0  0  0  0
  -49.9517   60.1761   64.6854 C   0  0  0  0  0  0  0  0  0  0  0  0
  -50.2737   59.4378   65.9846 C   0  0  0  0  0  0  0  0  0  0  0  0
  -48.3711   57.5804   66.0632 C   0  0  0  0  0  0  0  0  0  0  0  0
  -49.8384   57.9812   65.8148 C   0  0  0  0  0  0  0  0  0  0  0  0
  -47.2801   58.6201   66.3625 C   0  0  0  0  0  0  0  0  0  0  0  0
  -46.4786   58.8222   65.0684 C   0  0  0  0  0  0  0  0  0  0  0  0
  -45.3434   57.8575   64.6491 C   0  0  0  0  0  0  0  0  0  0  0  0
  -44.9779   56.6188   65.4901 C   0  0  0  0  0  0  0  0  0  0  0  0
  -42.9299   57.9737   66.1217 C   0  0  0  0  0  0  0  0  0  0  0  0
  -43.4523   56.6115   65.6585 C   0  0  0  0  0  0  0  0  0  0  0  0
  -48.9981   60.1842   60.9392 C   0  0  0  0  0  0  0  0  0  0  0  0
  -49.5021   59.5135   59.6394 C   0  0  0  0  0  0  0  0  0  0  0  0
  -46.5224   58.5445   57.6550 C   0  0  0  0  0  0  0  0  0  0  0  0
  -46.6105   57.1462   57.6540 C   0  0  0  0  0  0  0  0  0  0  0  0
  -47.4890   59.3138   58.3135 C   0  0  0  0  0  0  0  0  0  0  0  0
  -47.6741   56.5406   58.3229 C   0  0  0  0  0  0  0  0  0  0  0  0
  -48.6287   57.3123   58.9834 C   0  0  0  0  0  0  0  0  0  0  0  0
  -48.5389   58.7098   59.0145 C   0  0  0  0  0  0  0  0  0  0  0  0
  -47.8323   55.1949   58.3669 O   0  0  0  0  0  0  0  0  0  0  0  0
  -49.6473   56.6760   59.6310 O   0  0  0  0  0  0  0  0  0  0  0  0
  -47.2149   54.6364   57.9371 H   0  0  0  0  0  0  0  0  0  0  0  0
  -49.7051   55.7411   59.6086 H   0  0  0  0  0  0  0  0  0  0  0  0
 12 13  1  0  0  0
  9 10  2  0  0  0
  9  8  1  0  0  0
  6  7  2  0  0  0
  6  8  1  0  0  0
 10 11  1  0  0  0
  7  5  1  0  0  0
 16 17  2  0  0  0
 16 18  1  0  0  0
 17 19  1  0  0  0
 18 21  2  0  0  0
 13 11  1  0  0  0
  5  4  1  0  0  0
  4  3  1  0  0  0
  3  2  1  0  0  0
  2  1  1  0  0  0
  1 14  1  0  0  0
 14 15  1  0  0  0
 15 21  1  0  0  0
 19 20  2  0  0  0
 19 22  1  0  0  0
 20 21  1  0  0  0
 20 23  1  0  0  0
 22 24  1  0  0  0
 23 25  1  0  0  0
M  END
> <minimizedAffinity>
-8.19577

> <CNNscore>
0.6955012083

> <CNNaffinity>
6.9949769974

> <CNN_VS>
4.8650150299

> <CNNaffinity_variance>
0.3441461921

$$$$
/media/chris/experiments/cd1a-new-docking/inputs/ligands/5j1a_ligand.pdb


 25 25  0  0  0  0  0  0  0  0999 V2000
  -49.6991   60.4020   64.7646 C   0  0  0  0  0  0  0  0  0  0  0  0
  -51.1262   60.0586   64.3122 C   0  0  0  0  0  0  0  0  0  0  0  0
  -51.1778   59.8918   62.7998 C   0  0  0  0  0  0  0  0  0  0  0  0
  -49.8345   59.3574   62.3018 C   0  0  0  0  0  0  0  0  0  0  0  0
  -49.9839   57.9097   61.8348 C   0  0  0  0  0  0  0  0  0  0  0  0
  -49.6745   57.0322   59.3427 C   0  0  0  0  0  0  0  0  0  0  0  0
  -50.3977   57.9338   60.3622 C   0  0  0  0  0  0  0  0  0  0  0  0
  -48.4529   56.1828   59.7260 C   0  0  0  0  0  0  0  0  0  0  0  0
  -47.6105   56.0000   58.4551 C   0  0  0  0  0  0  0  0  0  0  0  0
  -46.5696   57.0526   58.0042 C   0  0  0  0  0  0  0  0  0  0  0  0
  -46.2948   58.3273   58.8258 C   0  0  0  0  0  0  0  0  0  0  0  0
  -47.5059   60.4812   59.3941 C   0  0  0  0  0  0  0  0  0  0  0  0
  -47.2587   59.4125   58.3266 C   0  0  0  0  0  0  0  0  0  0  0  0
  -49.3268   59.7890   66.1396 C   0  0  0  0  0  0  0  0  0  0  0  0
  -47.8791   60.1132   66.5784 C   0  0  0  0  0  0  0  0  0  0  0  0
  -45.9142   57.0942   67.4615 C   0  0  0  0  0  0  0  0  0  0  0  0
  -45.1710   56.8739   66.2944 C   0  0  0  0  0  0  0  0  0  0  0  0
  -46.8036   58.1725   67.5410 C   0  0  0  0  0  0  0  0  0  0  0  0
  -45.3384   57.7453   65.2182 C   0  0  0  0  0  0  0  0  0  0  0  0
  -46.2315   58.8122   65.3011 C   0  0  0  0  0  0  0  0  0  0  0  0
  -47.0000   59.0291   66.4520 C   0  0  0  0  0  0  0  0  0  0  0  0
  -44.6557   57.6027   64.0556 O   0  0  0  0  0  0  0  0  0  0  0  0
  -46.3681   59.6339   64.2204 O   0  0  0  0  0  0  0  0  0  0  0  0
  -44.0446   56.8997   63.9545 H   0  0  0  0  0  0  0  0  0  0  0  0
  -45.8529   59.4867   63.4518 H   0  0  0  0  0  0  0  0  0  0  0  0
 12 13  1  0  0  0
  9 10  2  0  0  0
  9  8  1  0  0  0
  6  7  2  0  0  0
  6  8  1  0  0  0
 10 11  1  0  0  0
  7  5  1  0  0  0
 16 17  2  0  0  0
 16 18  1  0  0  0
 17 19  1  0  0  0
 18 21  2  0  0  0
 13 11  1  0  0  0
  5  4  1  0  0  0
  4  3  1  0  0  0
  3  2  1  0  0  0
  2  1  1  0  0  0
  1 14  1  0  0  0
 14 15  1  0  0  0
 15 21  1  0  0  0
 19 20  2  0  0  0
 19 22  1  0  0  0
 20 21  1  0  0  0
 20 23  1  0  0  0
 22 24  1  0  0  0
 23 25  1  0  0  0
M  END
> <minimizedAffinity>
-7.88095

> <CNNscore>
0.6416445971

> <CNNaffinity>
6.5595788956

> <CNN_VS>
4.2089185715

> <CNNaffinity_variance>
0.3896100521

$$$$
/media/chris/experiments/cd1a-new-docking/inputs/ligands/5j1a_ligand.pdb


 25 25  0  0  0  0  0  0  0  0999 V2000
  -48.5962   56.5431   58.6014 C   0  0  0  0  0  0  0  0  0  0  0  0
  -49.2547   56.3373   59.9737 C   0  0  0  0  0  0  0  0  0  0  0  0
  -50.3556   57.3658   60.1937 C   0  0  0  0  0  0  0  0  0  0  0  0
  -50.3760   57.7807   61.6653 C   0  0  0  0  0  0  0  0  0  0  0  0
  -50.1364   59.2850   61.7918 C   0  0  0  0  0  0  0  0  0  0  0  0
  -50.8178   60.0320   64.2523 C   0  0  0  0  0  0  0  0  0  0  0  0
  -51.1760   59.8438   62.7651 C   0  0  0  0  0  0  0  0  0  0  0  0
  -49.4763   59.5616   64.8350 C   0  0  0  0  0  0  0  0  0  0  0  0
  -49.7306   58.2168   65.5314 C   0  0  0  0  0  0  0  0  0  0  0  0
  -48.5768   57.2517   65.8949 C   0  0  0  0  0  0  0  0  0  0  0  0
  -47.1034   57.6031   65.6100 C   0  0  0  0  0  0  0  0  0  0  0  0
  -46.2969   57.3547   68.0009 C   0  0  0  0  0  0  0  0  0  0  0  0
  -46.2401   56.7860   66.5810 C   0  0  0  0  0  0  0  0  0  0  0  0
  -48.7639   57.9828   58.0499 C   0  0  0  0  0  0  0  0  0  0  0  0
  -47.4304   58.7631   57.9707 C   0  0  0  0  0  0  0  0  0  0  0  0
  -47.4027   61.3718   60.6067 C   0  0  0  0  0  0  0  0  0  0  0  0
  -46.4256   60.8905   61.4881 C   0  0  0  0  0  0  0  0  0  0  0  0
  -47.7213   60.6580   59.4453 C   0  0  0  0  0  0  0  0  0  0  0  0
  -45.7837   59.6894   61.1867 C   0  0  0  0  0  0  0  0  0  0  0  0
  -46.1114   58.9797   60.0326 C   0  0  0  0  0  0  0  0  0  0  0  0
  -47.1042   59.4357   59.1561 C   0  0  0  0  0  0  0  0  0  0  0  0
  -44.8262   59.1577   61.9856 O   0  0  0  0  0  0  0  0  0  0  0  0
  -45.4627   57.8056   59.7829 O   0  0  0  0  0  0  0  0  0  0  0  0
  -44.5734   59.6000   62.7719 H   0  0  0  0  0  0  0  0  0  0  0  0
  -44.7989   57.5027   60.3708 H   0  0  0  0  0  0  0  0  0  0  0  0
 12 13  1  0  0  0
  9 10  2  0  0  0
  9  8  1  0  0  0
  6  7  2  0  0  0
  6  8  1  0  0  0
 10 11  1  0  0  0
  7  5  1  0  0  0
 16 17  2  0  0  0
 16 18  1  0  0  0
 17 19  1  0  0  0
 18 21  2  0  0  0
 13 11  1  0  0  0
  5  4  1  0  0  0
  4  3  1  0  0  0
  3  2  1  0  0  0
  2  1  1  0  0  0
  1 14  1  0  0  0
 14 15  1  0  0  0
 15 21  1  0  0  0
 19 20  2  0  0  0
 19 22  1  0  0  0
 20 21  1  0  0  0
 20 23  1  0  0  0
 22 24  1  0  0  0
 23 25  1  0  0  0
M  END
> <minimizedAffinity>
-8.07237

> <CNNscore>
0.6239660978

> <CNNaffinity>
6.7122282982

> <CNN_VS>
4.1882028580

> <CNNaffinity_variance>
0.1882947087

$$$$
/media/chris/experiments/cd1a-new-docking/inputs/ligands/5j1a_ligand.pdb


 25 25  0  0  0  0  0  0  0  0999 V2000
  -47.6940   58.7716   66.7446 C   0  0  0  0  0  0  0  0  0  0  0  0
  -48.7198   59.9033   66.5820 C   0  0  0  0  0  0  0  0  0  0  0  0
  -50.0779   59.3365   66.1915 C   0  0  0  0  0  0  0  0  0  0  0  0
  -50.5524   60.0006   64.8986 C   0  0  0  0  0  0  0  0  0  0  0  0
  -50.3113   59.0708   63.7095 C   0  0  0  0  0  0  0  0  0  0  0  0
  -49.9062   60.2188   61.3443 C   0  0  0  0  0  0  0  0  0  0  0  0
  -50.8647   59.7573   62.4595 C   0  0  0  0  0  0  0  0  0  0  0  0
  -48.3795   60.1262   61.4898 C   0  0  0  0  0  0  0  0  0  0  0  0
  -47.7655   61.0491   60.4270 C   0  0  0  0  0  0  0  0  0  0  0  0
  -47.4350   60.5489   59.0004 C   0  0  0  0  0  0  0  0  0  0  0  0
  -47.7371   59.1045   58.5555 C   0  0  0  0  0  0  0  0  0  0  0  0
  -45.8761   57.5424   59.2804 C   0  0  0  0  0  0  0  0  0  0  0  0
  -46.4018   58.4540   58.1688 C   0  0  0  0  0  0  0  0  0  0  0  0
  -46.2325   59.2788   66.8526 C   0  0  0  0  0  0  0  0  0  0  0  0
  -45.3512   58.8546   65.6540 C   0  0  0  0  0  0  0  0  0  0  0  0
  -45.5733   61.7934   63.4026 C   0  0  0  0  0  0  0  0  0  0  0  0
  -44.2253   62.0532   63.1224 C   0  0  0  0  0  0  0  0  0  0  0  0
  -45.9297   60.7291   64.2394 C   0  0  0  0  0  0  0  0  0  0  0  0
  -43.2516   61.2353   63.6953 C   0  0  0  0  0  0  0  0  0  0  0  0
  -43.6129   60.1822   64.5340 C   0  0  0  0  0  0  0  0  0  0  0  0
  -44.9550   59.9269   64.8434 C   0  0  0  0  0  0  0  0  0  0  0  0
  -41.9269   61.4183   63.4725 O   0  0  0  0  0  0  0  0  0  0  0  0
  -42.6256   59.4134   65.0780 O   0  0  0  0  0  0  0  0  0  0  0  0
  -41.6373   62.1138   62.9155 H   0  0  0  0  0  0  0  0  0  0  0  0
  -41.7286   59.5862   64.8694 H   0  0  0  0  0  0  0  0  0  0  0  0
 12 13  1  0  0  0
  9 10  2  0  0  0
  9  8  1  0  0  0
  6  7  2  0  0  0
  6  8  1  0  0  0
 10 11  1  0  0  0
  7  5  1  0  0  0
 16 17  2  0  0  0
 16 18  1  0  0  0
 17 19  1  0  0  0
 18 21  2  0  0  0
 13 11  1  0  0  0
  5  4  1  0  0  0
  4  3  1  0  0  0
  3  2  1  0  0  0
  2  1  1  0  0  0
  1 14  1  0  0  0
 14 15  1  0  0  0
 15 21  1  0  0  0
 19 20  2  0  0  0
 19 22  1  0  0  0
 20 21  1  0  0  0
 20 23  1  0  0  0
 22 24  1  0  0  0
 23 25  1  0  0  0
M  END
> <minimizedAffinity>
-7.64351

> <CNNscore>
0.5279075503

> <CNNaffinity>
6.3257412910

> <CNN_VS>
3.3394064903

> <CNNaffinity_variance>
0.3856954277

$$$$
/media/chris/experiments/cd1a-new-docking/inputs/ligands/5j1a_ligand.pdb


 25 25  0  0  0  0  0  0  0  0999 V2000
  -48.7081   59.6253   66.4072 C   0  0  0  0  0  0  0  0  0  0  0  0
  -50.0655   59.1841   65.8400 C   0  0  0  0  0  0  0  0  0  0  0  0
  -49.9133   58.7236   64.3968 C   0  0  0  0  0  0  0  0  0  0  0  0
  -50.7473   59.6249   63.4856 C   0  0  0  0  0  0  0  0  0  0  0  0
  -50.3327   59.4281   62.0276 C   0  0  0  0  0  0  0  0  0  0  0  0
  -49.8652   57.3810   60.3944 C   0  0  0  0  0  0  0  0  0  0  0  0
  -50.0485   57.9395   61.8192 C   0  0  0  0  0  0  0  0  0  0  0  0
  -50.0789   58.2477   59.1439 C   0  0  0  0  0  0  0  0  0  0  0  0
  -49.0688   57.7769   58.0875 C   0  0  0  0  0  0  0  0  0  0  0  0
  -47.6917   58.4601   57.9095 C   0  0  0  0  0  0  0  0  0  0  0  0
  -47.2426   59.6293   58.8077 C   0  0  0  0  0  0  0  0  0  0  0  0
  -45.7598   57.7036   59.5300 C   0  0  0  0  0  0  0  0  0  0  0  0
  -46.3875   59.0389   59.9372 C   0  0  0  0  0  0  0  0  0  0  0  0
  -47.9368   60.5921   65.4717 C   0  0  0  0  0  0  0  0  0  0  0  0
  -46.5893   60.0148   64.9775 C   0  0  0  0  0  0  0  0  0  0  0  0
  -46.2433   62.1238   61.9464 C   0  0  0  0  0  0  0  0  0  0  0  0
  -44.8525   62.2465   61.8293 C   0  0  0  0  0  0  0  0  0  0  0  0
  -46.8024   61.3791   62.9917 C   0  0  0  0  0  0  0  0  0  0  0  0
  -44.0419   61.6172   62.7739 C   0  0  0  0  0  0  0  0  0  0  0  0
  -44.6053   60.8838   63.8168 C   0  0  0  0  0  0  0  0  0  0  0  0
  -45.9942   60.7742   63.9610 C   0  0  0  0  0  0  0  0  0  0  0  0
  -42.6886   61.6852   62.7298 O   0  0  0  0  0  0  0  0  0  0  0  0
  -43.7732   60.2919   64.7218 O   0  0  0  0  0  0  0  0  0  0  0  0
  -42.2658   62.1672   62.0466 H   0  0  0  0  0  0  0  0  0  0  0  0
  -42.8444   60.3667   64.6231 H   0  0  0  0  0  0  0  0  0  0  0  0
 12 13  1  0  0  0
  9 10  2  0  0  0
  9  8  1  0  0  0
  6  7  2  0  0  0
  6  8  1  0  0  0
 10 11  1  0  0  0
  7  5  1  0  0  0
 16 17  2  0  0  0
 16 18  1  0  0  0
 17 19  1  0  0  0
 18 21  2  0  0  0
 13 11  1  0  0  0
  5  4  1  0  0  0
  4  3  1  0  0  0
  3  2  1  0  0  0
  2  1  1  0  0  0
  1 14  1  0  0  0
 14 15  1  0  0  0
 15 21  1  0  0  0
 19 20  2  0  0  0
 19 22  1  0  0  0
 20 21  1  0  0  0
 20 23  1  0  0  0
 22 24  1  0  0  0
 23 25  1  0  0  0
M  END
> <minimizedAffinity>
-7.79261

> <CNNscore>
0.5012081265

> <CNNaffinity>
6.2863454819

> <CNN_VS>
3.1507673264

> <CNNaffinity_variance>
0.3004637361

$$$$
/media/chris/experiments/cd1a-new-docking/inputs/ligands/5j1a_ligand.pdb


 25 25  0  0  0  0  0  0  0  0999 V2000
  -50.1772   59.4151   64.8521 C   0  0  0  0  0  0  0  0  0  0  0  0
  -49.9990   58.2132   63.9124 C   0  0  0  0  0  0  0  0  0  0  0  0
  -49.4841   58.6725   62.5552 C   0  0  0  0  0  0  0  0  0  0  0  0
  -50.6363   58.6773   61.5501 C   0  0  0  0  0  0  0  0  0  0  0  0
  -50.2041   57.9994   60.2500 C   0  0  0  0  0  0  0  0  0  0  0  0
  -48.5138   56.0573   59.5811 C   0  0  0  0  0  0  0  0  0  0  0  0
  -49.4342   56.7298   60.6183 C   0  0  0  0  0  0  0  0  0  0  0  0
  -48.4270   56.5471   58.1274 C   0  0  0  0  0  0  0  0  0  0  0  0
  -46.9372   56.7042   57.7897 C   0  0  0  0  0  0  0  0  0  0  0  0
  -46.2511   58.0903   57.7377 C   0  0  0  0  0  0  0  0  0  0  0  0
  -47.0175   59.3887   58.0575 C   0  0  0  0  0  0  0  0  0  0  0  0
  -47.6976   60.8579   60.0089 C   0  0  0  0  0  0  0  0  0  0  0  0
  -46.8661   59.6530   59.5618 C   0  0  0  0  0  0  0  0  0  0  0  0
  -49.4164   59.2624   66.1948 C   0  0  0  0  0  0  0  0  0  0  0  0
  -48.4216   60.4160   66.4650 C   0  0  0  0  0  0  0  0  0  0  0  0
  -45.8648   60.6150   63.7858 C   0  0  0  0  0  0  0  0  0  0  0  0
  -44.7862   59.9254   64.3552 C   0  0  0  0  0  0  0  0  0  0  0  0
  -47.0622   60.7657   64.4953 C   0  0  0  0  0  0  0  0  0  0  0  0
  -44.9294   59.3987   65.6388 C   0  0  0  0  0  0  0  0  0  0  0  0
  -46.1217   59.5594   66.3429 C   0  0  0  0  0  0  0  0  0  0  0  0
  -47.1988   60.2686   65.7963 C   0  0  0  0  0  0  0  0  0  0  0  0
  -43.9352   58.7169   66.2589 O   0  0  0  0  0  0  0  0  0  0  0  0
  -46.2132   59.0339   67.5988 O   0  0  0  0  0  0  0  0  0  0  0  0
  -43.1160   58.5844   65.8238 H   0  0  0  0  0  0  0  0  0  0  0  0
  -45.4913   58.5598   67.9621 H   0  0  0  0  0  0  0  0  0  0  0  0
 12 13  1  0  0  0
  9 10  2  0  0  0
  9  8  1  0  0  0
  6  7  2  0  0  0
  6  8  1  0  0  0
 10 11  1  0  0  0
  7  5  1  0  0  0
 16 17  2  0  0  0
 16 18  1  0  0  0
 17 19  1  0  0  0
 18 21  2  0  0  0
 13 11  1  0  0  0
  5  4  1  0  0  0
  4  3  1  0  0  0
  3  2  1  0  0  0
  2  1  1  0  0  0
  1 14  1  0  0  0
 14 15  1  0  0  0
 15 21  1  0  0  0
 19 20  2  0  0  0
 19 22  1  0  0  0
 20 21  1  0  0  0
 20 23  1  0  0  0
 22 24  1  0  0  0
 23 25  1  0  0  0
M  END
> <minimizedAffinity>
-7.68569

> <CNNscore>
0.4344494641

> <CNNaffinity>
6.3476624489

> <CNN_VS>
2.7577385902

> <CNNaffinity_variance>
0.1869297326

$$$$
/media/chris/experiments/cd1a-new-docking/inputs/ligands/5j1a_ligand.pdb


 25 25  0  0  0  0  0  0  0  0999 V2000
  -50.0824   58.2102   59.4703 C   0  0  0  0  0  0  0  0  0  0  0  0
  -49.7083   57.3341   58.2654 C   0  0  0  0  0  0  0  0  0  0  0  0
  -48.3850   57.7915   57.6672 C   0  0  0  0  0  0  0  0  0  0  0  0
  -47.2406   57.3864   58.5969 C   0  0  0  0  0  0  0  0  0  0  0  0
  -46.3050   58.5729   58.8286 C   0  0  0  0  0  0  0  0  0  0  0  0
  -47.3373   60.9076   59.5767 C   0  0  0  0  0  0  0  0  0  0  0  0
  -47.0757   59.8495   58.4871 C   0  0  0  0  0  0  0  0  0  0  0  0
  -46.9557   60.6772   61.0471 C   0  0  0  0  0  0  0  0  0  0  0  0
  -46.5959   62.0462   61.6425 C   0  0  0  0  0  0  0  0  0  0  0  0
  -45.4974   62.2071   62.7205 C   0  0  0  0  0  0  0  0  0  0  0  0
  -44.6778   61.0059   63.2311 C   0  0  0  0  0  0  0  0  0  0  0  0
  -43.0730   62.4885   61.9446 C   0  0  0  0  0  0  0  0  0  0  0  0
  -43.2399   61.1818   62.7241 C   0  0  0  0  0  0  0  0  0  0  0  0
  -50.3796   57.3932   60.7545 C   0  0  0  0  0  0  0  0  0  0  0  0
  -49.3198   57.5957   61.8632 C   0  0  0  0  0  0  0  0  0  0  0  0
  -51.1753   60.2352   63.6921 C   0  0  0  0  0  0  0  0  0  0  0  0
  -50.6289   60.1425   64.9789 C   0  0  0  0  0  0  0  0  0  0  0  0
  -50.7290   59.3876   62.6711 C   0  0  0  0  0  0  0  0  0  0  0  0
  -49.6387   59.1902   65.2201 C   0  0  0  0  0  0  0  0  0  0  0  0
  -49.2046   58.3440   64.2010 C   0  0  0  0  0  0  0  0  0  0  0  0
  -49.7603   58.4080   62.9168 C   0  0  0  0  0  0  0  0  0  0  0  0
  -49.0580   59.0385   66.4356 O   0  0  0  0  0  0  0  0  0  0  0  0
  -48.2394   57.4224   64.4853 O   0  0  0  0  0  0  0  0  0  0  0  0
  -49.3183   59.5853   67.1506 H   0  0  0  0  0  0  0  0  0  0  0  0
  -47.8693   57.3817   65.3452 H   0  0  0  0  0  0  0  0  0  0  0  0
 12 13  1  0  0  0
  9 10  2  0  0  0
  9  8  1  0  0  0
  6  7  2  0  0  0
  6  8  1  0  0  0
 10 11  1  0  0  0
  7  5  1  0  0  0
 16 17  2  0  0  0
 16 18  1  0  0  0
 17 19  1  0  0  0
 18 21  2  0  0  0
 13 11  1  0  0  0
  5  4  1  0  0  0
  4  3  1  0  0  0
  3  2  1  0  0  0
  2  1  1  0  0  0
  1 14  1  0  0  0
 14 15  1  0  0  0
 15 21  1  0  0  0
 19 20  2  0  0  0
 19 22  1  0  0  0
 20 21  1  0  0  0
 20 23  1  0  0  0
 22 24  1  0  0  0
 23 25  1  0  0  0
M  END
> <minimizedAffinity>
-8.06238

> <CNNscore>
0.3472213447

> <CNNaffinity>
6.3224735260

> <CNN_VS>
2.1952977180

> <CNNaffinity_variance>
0.1033468693

$$$$
/media/chris/experiments/cd1a-new-docking/inputs/ligands/5j1a_ligand.pdb


 25 25  0  0  0  0  0  0  0  0999 V2000
  -46.3307   60.8357   61.1682 C   0  0  0  0  0  0  0  0  0  0  0  0
  -46.7370   59.9402   62.3481 C   0  0  0  0  0  0  0  0  0  0  0  0
  -48.2533   59.8825   62.4731 C   0  0  0  0  0  0  0  0  0  0  0  0
  -48.7056   58.4221   62.4963 C   0  0  0  0  0  0  0  0  0  0  0  0
  -50.1417   58.3235   63.0106 C   0  0  0  0  0  0  0  0  0  0  0  0
  -50.8436   60.3323   64.6070 C   0  0  0  0  0  0  0  0  0  0  0  0
  -50.6722   59.7469   63.1916 C   0  0  0  0  0  0  0  0  0  0  0  0
  -50.6147   59.4906   65.8719 C   0  0  0  0  0  0  0  0  0  0  0  0
  -49.1897   59.7862   66.3620 C   0  0  0  0  0  0  0  0  0  0  0  0
  -48.1033   58.6864   66.4320 C   0  0  0  0  0  0  0  0  0  0  0  0
  -48.3814   57.2396   65.9793 C   0  0  0  0  0  0  0  0  0  0  0  0
  -46.1968   57.0054   67.2449 C   0  0  0  0  0  0  0  0  0  0  0  0
  -47.0684   56.4559   66.1130 C   0  0  0  0  0  0  0  0  0  0  0  0
  -47.5025   61.1456   60.2009 C   0  0  0  0  0  0  0  0  0  0  0  0
  -47.3983   60.3874   58.8564 C   0  0  0  0  0  0  0  0  0  0  0  0
  -49.9808   57.7432   59.1633 C   0  0  0  0  0  0  0  0  0  0  0  0
  -49.2204   56.5725   59.0431 C   0  0  0  0  0  0  0  0  0  0  0  0
  -49.3626   58.9978   59.1030 C   0  0  0  0  0  0  0  0  0  0  0  0
  -47.8423   56.6839   58.8590 C   0  0  0  0  0  0  0  0  0  0  0  0
  -47.2342   57.9364   58.7918 C   0  0  0  0  0  0  0  0  0  0  0  0
  -47.9853   59.1150   58.8845 C   0  0  0  0  0  0  0  0  0  0  0  0
  -47.0363   55.6007   58.7365 O   0  0  0  0  0  0  0  0  0  0  0  0
  -45.8842   57.9966   58.6029 O   0  0  0  0  0  0  0  0  0  0  0  0
  -47.4012   54.7386   58.7754 H   0  0  0  0  0  0  0  0  0  0  0  0
  -45.3840   57.2067   58.5413 H   0  0  0  0  0  0  0  0  0  0  0  0
 12 13  1  0  0  0
  9 10  2  0  0  0
  9  8  1  0  0  0
  6  7  2  0  0  0
  6  8  1  0  0  0
 10 11  1  0  0  0
  7  5  1  0  0  0
 16 17  2  0  0  0
 16 18  1  0  0  0
 17 19  1  0  0  0
 18 21  2  0  0  0
 13 11  1  0  0  0
  5  4  1  0  0  0
  4  3  1  0  0  0
  3  2  1  0  0  0
  2  1  1  0  0  0
  1 14  1  0  0  0
 14 15  1  0  0  0
 15 21  1  0  0  0
 19 20  2  0  0  0
 19 22  1  0  0  0
 20 21  1  0  0  0
 20 23  1  0  0  0
 22 24  1  0  0  0
 23 25  1  0  0  0
M  END
> <minimizedAffinity>
-7.76143

> <CNNscore>
0.3304284215

> <CNNaffinity>
6.4769525528

> <CNN_VS>
2.1401691437

> <CNNaffinity_variance>
0.2375400960

$$$$
/media/chris/experiments/cd1a-new-docking/inputs/ligands/5j1a_ligand.pdb


 25 25  0  0  0  0  0  0  0  0999 V2000
  -45.9411   58.9326   60.5293 C   0  0  0  0  0  0  0  0  0  0  0  0
  -46.1083   57.9052   59.3998 C   0  0  0  0  0  0  0  0  0  0  0  0
  -46.6182   58.5841   58.1360 C   0  0  0  0  0  0  0  0  0  0  0  0
  -48.0452   58.1160   57.8488 C   0  0  0  0  0  0  0  0  0  0  0  0
  -49.0268   58.8073   58.7949 C   0  0  0  0  0  0  0  0  0  0  0  0
  -50.3510   57.2418   60.4897 C   0  0  0  0  0  0  0  0  0  0  0  0
  -50.1703   57.8310   59.0771 C   0  0  0  0  0  0  0  0  0  0  0  0
  -49.3421   57.5032   61.6186 C   0  0  0  0  0  0  0  0  0  0  0  0
  -50.0844   58.2713   62.7219 C   0  0  0  0  0  0  0  0  0  0  0  0
  -49.4746   58.4764   64.1293 C   0  0  0  0  0  0  0  0  0  0  0  0
  -48.0714   57.9514   64.4911 C   0  0  0  0  0  0  0  0  0  0  0  0
  -46.9258   56.3153   66.0531 C   0  0  0  0  0  0  0  0  0  0  0  0
  -48.2168   57.0775   65.7445 C   0  0  0  0  0  0  0  0  0  0  0  0
  -45.5100   58.2983   61.8771 C   0  0  0  0  0  0  0  0  0  0  0  0
  -43.9886   58.0314   61.9650 C   0  0  0  0  0  0  0  0  0  0  0  0
  -43.2173   57.4846   65.5512 C   0  0  0  0  0  0  0  0  0  0  0  0
  -42.4903   58.6375   65.8759 C   0  0  0  0  0  0  0  0  0  0  0  0
  -43.7093   57.3004   64.2535 C   0  0  0  0  0  0  0  0  0  0  0  0
  -42.2655   59.5905   64.8826 C   0  0  0  0  0  0  0  0  0  0  0  0
  -42.7514   59.3972   63.5905 C   0  0  0  0  0  0  0  0  0  0  0  0
  -43.4573   58.2376   63.2453 C   0  0  0  0  0  0  0  0  0  0  0  0
  -41.5742   60.7331   65.1159 O   0  0  0  0  0  0  0  0  0  0  0  0
  -42.5003   60.3528   62.6496 O   0  0  0  0  0  0  0  0  0  0  0  0
  -41.2288   60.9056   65.9697 H   0  0  0  0  0  0  0  0  0  0  0  0
  -42.0279   61.1276   62.8831 H   0  0  0  0  0  0  0  0  0  0  0  0
 12 13  1  0  0  0
  9 10  2  0  0  0
  9  8  1  0  0  0
  6  7  2  0  0  0
  6  8  1  0  0  0
 10 11  1  0  0  0
  7  5  1  0  0  0
 16 17  2  0  0  0
 16 18  1  0  0  0
 17 19  1  0  0  0
 18 21  2  0  0  0
 13 11  1  0  0  0
  5  4  1  0  0  0
  4  3  1  0  0  0
  3  2  1  0  0  0
  2  1  1  0  0  0
  1 14  1  0  0  0
 14 15  1  0  0  0
 15 21  1  0  0  0
 19 20  2  0  0  0
 19 22  1  0  0  0
 20 21  1  0  0  0
 20 23  1  0  0  0
 22 24  1  0  0  0
 23 25  1  0  0  0
M  END
> <minimizedAffinity>
-7.59273

> <CNNscore>
0.3109410703

> <CNNaffinity>
6.2487134933

> <CNN_VS>
1.9429817200

> <CNNaffinity_variance>
0.2605099678

$$$$
