/media/chris/experiments/cd1a-new-docking/inputs/ligands/5j1a_ligand.pdb


 25 25  0  0  0  0  0  0  0  0999 V2000
  -47.8115   55.9676   59.0388 C   0  0  0  0  0  0  0  0  0  0  0  0
  -49.0505   56.0791   59.9397 C   0  0  0  0  0  0  0  0  0  0  0  0
  -49.9269   57.2421   59.4952 C   0  0  0  0  0  0  0  0  0  0  0  0
  -50.7824   57.7119   60.6722 C   0  0  0  0  0  0  0  0  0  0  0  0
  -49.9051   58.3941   61.7218 C   0  0  0  0  0  0  0  0  0  0  0  0
  -50.7411   59.7520   63.8509 C   0  0  0  0  0  0  0  0  0  0  0  0
  -50.7081   59.5487   62.3235 C   0  0  0  0  0  0  0  0  0  0  0  0
  -50.0884   58.7557   64.8215 C   0  0  0  0  0  0  0  0  0  0  0  0
  -49.8469   59.5010   66.1422 C   0  0  0  0  0  0  0  0  0  0  0  0
  -48.5166   60.2344   66.4373 C   0  0  0  0  0  0  0  0  0  0  0  0
  -47.3723   60.2880   65.4061 C   0  0  0  0  0  0  0  0  0  0  0  0
  -46.0503   59.0304   67.1664 C   0  0  0  0  0  0  0  0  0  0  0  0
  -46.4428   59.0999   65.6887 C   0  0  0  0  0  0  0  0  0  0  0  0
  -47.7769   57.0287   57.9084 C   0  0  0  0  0  0  0  0  0  0  0  0
  -46.5864   58.0091   58.0305 C   0  0  0  0  0  0  0  0  0  0  0  0
  -47.7840   61.0603   59.7659 C   0  0  0  0  0  0  0  0  0  0  0  0
  -47.0781   61.0082   60.9752 C   0  0  0  0  0  0  0  0  0  0  0  0
  -47.6077   60.0620   58.8003 C   0  0  0  0  0  0  0  0  0  0  0  0
  -46.2038   59.9443   61.1961 C   0  0  0  0  0  0  0  0  0  0  0  0
  -46.0389   58.9496   60.2337 C   0  0  0  0  0  0  0  0  0  0  0  0
  -46.7573   58.9750   59.0315 C   0  0  0  0  0  0  0  0  0  0  0  0
  -45.4826   59.8225   62.3375 O   0  0  0  0  0  0  0  0  0  0  0  0
  -45.1785   57.9238   60.4969 O   0  0  0  0  0  0  0  0  0  0  0  0
  -45.5612   60.4676   63.0126 H   0  0  0  0  0  0  0  0  0  0  0  0
  -44.6991   57.9092   61.3019 H   0  0  0  0  0  0  0  0  0  0  0  0
 12 13  1  0  0  0
  9 10  2  0  0  0
  9  8  1  0  0  0
  6  7  2  0  0  0
  6  8  1  0  0  0
 10 11  1  0  0  0
  7  5  1  0  0  0
 16 17  2  0  0  0
 16 18  1  0  0  0
 17 19  1  0  0  0
 18 21  2  0  0  0
 13 11  1  0  0  0
  5  4  1  0  0  0
  4  3  1  0  0  0
  3  2  1  0  0  0
  2  1  1  0  0  0
  1 14  1  0  0  0
 14 15  1  0  0  0
 15 21  1  0  0  0
 19 20  2  0  0  0
 19 22  1  0  0  0
 20 21  1  0  0  0
 20 23  1  0  0  0
 22 24  1  0  0  0
 23 25  1  0  0  0
M  END
> <minimizedAffinity>
-7.99137

> <CNNscore>
0.7075200677

> <CNNaffinity>
6.7081503868

> <CNN_VS>
4.7461509705

> <CNNaffinity_variance>
0.1500502080

$$$$
/media/chris/experiments/cd1a-new-docking/inputs/ligands/5j1a_ligand.pdb


 25 25  0  0  0  0  0  0  0  0999 V2000
  -49.4253   58.4868   61.6198 C   0  0  0  0  0  0  0  0  0  0  0  0
  -49.8809   59.8511   62.1585 C   0  0  0  0  0  0  0  0  0  0  0  0
  -51.1765   59.7054   62.9448 C   0  0  0  0  0  0  0  0  0  0  0  0
  -50.9328   60.0984   64.4022 C   0  0  0  0  0  0  0  0  0  0  0  0
  -50.1289   59.0104   65.1138 C   0  0  0  0  0  0  0  0  0  0  0  0
  -48.0733   60.2821   66.2243 C   0  0  0  0  0  0  0  0  0  0  0  0
  -49.4707   59.6426   66.3415 C   0  0  0  0  0  0  0  0  0  0  0  0
  -47.2455   60.2045   64.9322 C   0  0  0  0  0  0  0  0  0  0  0  0
  -45.7664   60.1648   65.3427 C   0  0  0  0  0  0  0  0  0  0  0  0
  -44.9695   58.8398   65.4068 C   0  0  0  0  0  0  0  0  0  0  0  0
  -45.6072   57.4890   65.0271 C   0  0  0  0  0  0  0  0  0  0  0  0
  -47.5809   56.3160   66.1026 C   0  0  0  0  0  0  0  0  0  0  0  0
  -46.1691   56.8682   66.3133 C   0  0  0  0  0  0  0  0  0  0  0  0
  -50.4905   57.7896   60.7344 C   0  0  0  0  0  0  0  0  0  0  0  0
  -50.2595   58.0064   59.2201 C   0  0  0  0  0  0  0  0  0  0  0  0
  -46.8450   58.7724   57.9912 C   0  0  0  0  0  0  0  0  0  0  0  0
  -46.2617   57.4999   57.9284 C   0  0  0  0  0  0  0  0  0  0  0  0
  -48.1701   58.9229   58.4175 C   0  0  0  0  0  0  0  0  0  0  0  0
  -47.0243   56.3933   58.3013 C   0  0  0  0  0  0  0  0  0  0  0  0
  -48.3404   56.5512   58.7323 C   0  0  0  0  0  0  0  0  0  0  0  0
  -48.9280   57.8193   58.8247 C   0  0  0  0  0  0  0  0  0  0  0  0
  -46.5350   55.1295   58.2665 O   0  0  0  0  0  0  0  0  0  0  0  0
  -49.0457   55.4406   59.0944 O   0  0  0  0  0  0  0  0  0  0  0  0
  -45.6552   54.9754   57.9835 H   0  0  0  0  0  0  0  0  0  0  0  0
  -48.6503   54.5934   59.0316 H   0  0  0  0  0  0  0  0  0  0  0  0
 12 13  1  0  0  0
  9 10  2  0  0  0
  9  8  1  0  0  0
  6  7  2  0  0  0
  6  8  1  0  0  0
 10 11  1  0  0  0
  7  5  1  0  0  0
 16 17  2  0  0  0
 16 18  1  0  0  0
 17 19  1  0  0  0
 18 21  2  0  0  0
 13 11  1  0  0  0
  5  4  1  0  0  0
  4  3  1  0  0  0
  3  2  1  0  0  0
  2  1  1  0  0  0
  1 14  1  0  0  0
 14 15  1  0  0  0
 15 21  1  0  0  0
 19 20  2  0  0  0
 19 22  1  0  0  0
 20 21  1  0  0  0
 20 23  1  0  0  0
 22 24  1  0  0  0
 23 25  1  0  0  0
M  END
> <minimizedAffinity>
-8.11078

> <CNNscore>
0.4784028828

> <CNNaffinity>
6.6835341454

> <CNN_VS>
3.1974220276

> <CNNaffinity_variance>
0.1691301614

$$$$
/media/chris/experiments/cd1a-new-docking/inputs/ligands/5j1a_ligand.pdb


 25 25  0  0  0  0  0  0  0  0999 V2000
  -49.8039   58.3127   64.0418 C   0  0  0  0  0  0  0  0  0  0  0  0
  -50.4838   59.3526   63.1388 C   0  0  0  0  0  0  0  0  0  0  0  0
  -50.1997   59.0502   61.6739 C   0  0  0  0  0  0  0  0  0  0  0  0
  -50.6504   57.6247   61.3532 C   0  0  0  0  0  0  0  0  0  0  0  0
  -49.8326   57.0628   60.1904 C   0  0  0  0  0  0  0  0  0  0  0  0
  -49.2551   57.7304   57.6810 C   0  0  0  0  0  0  0  0  0  0  0  0
  -50.0122   58.0014   58.9959 C   0  0  0  0  0  0  0  0  0  0  0  0
  -48.2157   56.6059   57.5542 C   0  0  0  0  0  0  0  0  0  0  0  0
  -46.8863   57.2603   57.1511 C   0  0  0  0  0  0  0  0  0  0  0  0
  -45.8951   57.8156   58.2017 C   0  0  0  0  0  0  0  0  0  0  0  0
  -46.1712   57.7104   59.7144 C   0  0  0  0  0  0  0  0  0  0  0  0
  -47.0625   60.0830   59.6475 C   0  0  0  0  0  0  0  0  0  0  0  0
  -46.0639   59.1247   60.3008 C   0  0  0  0  0  0  0  0  0  0  0  0
  -49.9782   58.6057   65.5546 C   0  0  0  0  0  0  0  0  0  0  0  0
  -49.2119   59.8656   66.0225 C   0  0  0  0  0  0  0  0  0  0  0  0
  -45.8685   58.7589   67.1854 C   0  0  0  0  0  0  0  0  0  0  0  0
  -45.0154   59.3754   66.2605 C   0  0  0  0  0  0  0  0  0  0  0  0
  -47.2547   58.9336   67.0951 C   0  0  0  0  0  0  0  0  0  0  0  0
  -45.5744   60.1596   65.2516 C   0  0  0  0  0  0  0  0  0  0  0  0
  -46.9557   60.3230   65.1629 C   0  0  0  0  0  0  0  0  0  0  0  0
  -47.8219   59.6917   66.0647 C   0  0  0  0  0  0  0  0  0  0  0  0
  -44.8184   60.7914   64.3204 O   0  0  0  0  0  0  0  0  0  0  0  0
  -47.4579   61.0929   64.1544 O   0  0  0  0  0  0  0  0  0  0  0  0
  -43.8851   60.7101   64.3408 H   0  0  0  0  0  0  0  0  0  0  0  0
  -46.8763   61.5141   63.5525 H   0  0  0  0  0  0  0  0  0  0  0  0
 12 13  1  0  0  0
  9 10  2  0  0  0
  9  8  1  0  0  0
  6  7  2  0  0  0
  6  8  1  0  0  0
 10 11  1  0  0  0
  7  5  1  0  0  0
 16 17  2  0  0  0
 16 18  1  0  0  0
 17 19  1  0  0  0
 18 21  2  0  0  0
 13 11  1  0  0  0
  5  4  1  0  0  0
  4  3  1  0  0  0
  3  2  1  0  0  0
  2  1  1  0  0  0
  1 14  1  0  0  0
 14 15  1  0  0  0
 15 21  1  0  0  0
 19 20  2  0  0  0
 19 22  1  0  0  0
 20 21  1  0  0  0
 20 23  1  0  0  0
 22 24  1  0  0  0
 23 25  1  0  0  0
M  END
> <minimizedAffinity>
-7.94380

> <CNNscore>
0.4418882132

> <CNNaffinity>
6.2428183556

> <CNN_VS>
2.7586278915

> <CNNaffinity_variance>
0.2305816859

$$$$
/media/chris/experiments/cd1a-new-docking/inputs/ligands/5j1a_ligand.pdb


 25 25  0  0  0  0  0  0  0  0999 V2000
  -46.6380   59.5135   59.0059 C   0  0  0  0  0  0  0  0  0  0  0  0
  -46.9989   59.0416   57.5896 C   0  0  0  0  0  0  0  0  0  0  0  0
  -46.4444   57.6462   57.3377 C   0  0  0  0  0  0  0  0  0  0  0  0
  -47.5638   56.7401   56.8240 C   0  0  0  0  0  0  0  0  0  0  0  0
  -48.8143   56.9070   57.6870 C   0  0  0  0  0  0  0  0  0  0  0  0
  -49.4562   56.4819   60.2332 C   0  0  0  0  0  0  0  0  0  0  0  0
  -48.5711   56.1768   59.0090 C   0  0  0  0  0  0  0  0  0  0  0  0
  -50.5148   57.5954   60.2182 C   0  0  0  0  0  0  0  0  0  0  0  0
  -49.7736   58.9285   60.3961 C   0  0  0  0  0  0  0  0  0  0  0  0
  -50.0849   59.8884   61.5693 C   0  0  0  0  0  0  0  0  0  0  0  0
  -51.1323   59.5428   62.6458 C   0  0  0  0  0  0  0  0  0  0  0  0
  -49.4369   58.3512   64.1066 C   0  0  0  0  0  0  0  0  0  0  0  0
  -50.4112   59.5268   64.0006 C   0  0  0  0  0  0  0  0  0  0  0  0
  -45.9106   58.4322   59.8465 C   0  0  0  0  0  0  0  0  0  0  0  0
  -46.2366   58.5143   61.3567 C   0  0  0  0  0  0  0  0  0  0  0  0
  -46.1756   61.9431   62.7692 C   0  0  0  0  0  0  0  0  0  0  0  0
  -44.8280   62.0926   63.1229 C   0  0  0  0  0  0  0  0  0  0  0  0
  -46.6253   60.7541   62.1825 C   0  0  0  0  0  0  0  0  0  0  0  0
  -43.9503   61.0357   62.8824 C   0  0  0  0  0  0  0  0  0  0  0  0
  -44.4063   59.8518   62.3052 C   0  0  0  0  0  0  0  0  0  0  0  0
  -45.7554   59.6787   61.9705 C   0  0  0  0  0  0  0  0  0  0  0  0
  -42.6323   61.1018   63.1927 O   0  0  0  0  0  0  0  0  0  0  0  0
  -43.5129   58.8420   62.0959 O   0  0  0  0  0  0  0  0  0  0  0  0
  -42.2811   61.8782   63.5825 H   0  0  0  0  0  0  0  0  0  0  0  0
  -42.6109   58.9604   62.3206 H   0  0  0  0  0  0  0  0  0  0  0  0
 12 13  1  0  0  0
  9 10  2  0  0  0
  9  8  1  0  0  0
  6  7  2  0  0  0
  6  8  1  0  0  0
 10 11  1  0  0  0
  7  5  1  0  0  0
 16 17  2  0  0  0
 16 18  1  0  0  0
 17 19  1  0  0  0
 18 21  2  0  0  0
 13 11  1  0  0  0
  5  4  1  0  0  0
  4  3  1  0  0  0
  3  2  1  0  0  0
  2  1  1  0  0  0
  1 14  1  0  0  0
 14 15  1  0  0  0
 15 21  1  0  0  0
 19 20  2  0  0  0
 19 22  1  0  0  0
 20 21  1  0  0  0
 20 23  1  0  0  0
 22 24  1  0  0  0
 23 25  1  0  0  0
M  END
> <minimizedAffinity>
-7.77207

> <CNNscore>
0.4139917791

> <CNNaffinity>
6.3893833160

> <CNN_VS>
2.6451520920

> <CNNaffinity_variance>
0.0306755099

$$$$
/media/chris/experiments/cd1a-new-docking/inputs/ligands/5j1a_ligand.pdb


 25 25  0  0  0  0  0  0  0  0999 V2000
  -36.9025   57.1330   61.6000 C   0  0  0  0  0  0  0  0  0  0  0  0
  -37.2763   58.3990   60.8149 C   0  0  0  0  0  0  0  0  0  0  0  0
  -38.7732   58.4293   60.5381 C   0  0  0  0  0  0  0  0  0  0  0  0
  -39.4514   57.2823   61.2880 C   0  0  0  0  0  0  0  0  0  0  0  0
  -40.8848   57.6670   61.6540 C   0  0  0  0  0  0  0  0  0  0  0  0
  -42.0404   59.8047   62.7359 C   0  0  0  0  0  0  0  0  0  0  0  0
  -40.9190   59.1789   61.8838 C   0  0  0  0  0  0  0  0  0  0  0  0
  -43.2157   58.9749   63.2754 C   0  0  0  0  0  0  0  0  0  0  0  0
  -42.9817   58.7821   64.7808 C   0  0  0  0  0  0  0  0  0  0  0  0
  -42.9717   57.3798   65.4350 C   0  0  0  0  0  0  0  0  0  0  0  0
  -43.1606   56.0948   64.6053 C   0  0  0  0  0  0  0  0  0  0  0  0
  -41.8410   54.3802   63.2835 C   0  0  0  0  0  0  0  0  0  0  0  0
  -41.7641   55.5794   64.2315 C   0  0  0  0  0  0  0  0  0  0  0  0
  -35.6292   57.3029   62.4686 C   0  0  0  0  0  0  0  0  0  0  0  0
  -35.9173   57.2493   63.9878 C   0  0  0  0  0  0  0  0  0  0  0  0
  -39.2792   58.4391   65.0061 C   0  0  0  0  0  0  0  0  0  0  0  0
  -39.0788   59.8206   65.1283 C   0  0  0  0  0  0  0  0  0  0  0  0
  -38.2238   57.6022   64.6245 C   0  0  0  0  0  0  0  0  0  0  0  0
  -37.8112   60.3401   64.8665 C   0  0  0  0  0  0  0  0  0  0  0  0
  -36.7630   59.5002   64.4946 C   0  0  0  0  0  0  0  0  0  0  0  0
  -36.9422   58.1146   64.3938 C   0  0  0  0  0  0  0  0  0  0  0  0
  -37.5362   61.6643   64.9594 O   0  0  0  0  0  0  0  0  0  0  0  0
  -35.5381   60.0523   64.2559 O   0  0  0  0  0  0  0  0  0  0  0  0
  -38.2102   62.2667   65.2062 H   0  0  0  0  0  0  0  0  0  0  0  0
  -35.4209   60.9795   64.3240 H   0  0  0  0  0  0  0  0  0  0  0  0
 12 13  1  0  0  0
  9 10  2  0  0  0
  9  8  1  0  0  0
  6  7  2  0  0  0
  6  8  1  0  0  0
 10 11  1  0  0  0
  7  5  1  0  0  0
 16 17  2  0  0  0
 16 18  1  0  0  0
 17 19  1  0  0  0
 18 21  2  0  0  0
 13 11  1  0  0  0
  5  4  1  0  0  0
  4  3  1  0  0  0
  3  2  1  0  0  0
  2  1  1  0  0  0
  1 14  1  0  0  0
 14 15  1  0  0  0
 15 21  1  0  0  0
 19 20  2  0  0  0
 19 22  1  0  0  0
 20 21  1  0  0  0
 20 23  1  0  0  0
 22 24  1  0  0  0
 23 25  1  0  0  0
M  END
> <minimizedAffinity>
-7.04640

> <CNNscore>
0.4122750759

> <CNNaffinity>
6.1975154877

> <CNN_VS>
2.5550811291

> <CNNaffinity_variance>
0.1195120215

$$$$
/media/chris/experiments/cd1a-new-docking/inputs/ligands/5j1a_ligand.pdb


 25 25  0  0  0  0  0  0  0  0999 V2000
  -47.4985   57.3278   56.6569 C   0  0  0  0  0  0  0  0  0  0  0  0
  -47.2894   55.8454   57.0003 C   0  0  0  0  0  0  0  0  0  0  0  0
  -47.3520   55.6357   58.5070 C   0  0  0  0  0  0  0  0  0  0  0  0
  -48.8136   55.5410   58.9460 C   0  0  0  0  0  0  0  0  0  0  0  0
  -49.0602   56.4439   60.1545 C   0  0  0  0  0  0  0  0  0  0  0  0
  -50.2209   58.7819   60.6668 C   0  0  0  0  0  0  0  0  0  0  0  0
  -49.7943   57.6928   59.6632 C   0  0  0  0  0  0  0  0  0  0  0  0
  -50.0446   58.6090   62.1833 C   0  0  0  0  0  0  0  0  0  0  0  0
  -50.8467   59.7279   62.8637 C   0  0  0  0  0  0  0  0  0  0  0  0
  -50.9145   59.8670   64.4034 C   0  0  0  0  0  0  0  0  0  0  0  0
  -50.1506   58.9105   65.3400 C   0  0  0  0  0  0  0  0  0  0  0  0
  -48.0124   59.0927   66.6903 C   0  0  0  0  0  0  0  0  0  0  0  0
  -49.3287   59.7733   66.3073 C   0  0  0  0  0  0  0  0  0  0  0  0
  -46.4300   58.2600   57.2845 C   0  0  0  0  0  0  0  0  0  0  0  0
  -47.0396   59.3877   58.1507 C   0  0  0  0  0  0  0  0  0  0  0  0
  -45.4283   58.2372   61.2868 C   0  0  0  0  0  0  0  0  0  0  0  0
  -45.6715   59.3104   62.1544 C   0  0  0  0  0  0  0  0  0  0  0  0
  -45.8906   58.2766   59.9659 C   0  0  0  0  0  0  0  0  0  0  0  0
  -46.3768   60.4139   61.6749 C   0  0  0  0  0  0  0  0  0  0  0  0
  -46.8274   60.4499   60.3564 C   0  0  0  0  0  0  0  0  0  0  0  0
  -46.5691   59.3959   59.4707 C   0  0  0  0  0  0  0  0  0  0  0  0
  -46.6552   61.4903   62.4504 O   0  0  0  0  0  0  0  0  0  0  0  0
  -47.5065   61.5537   59.9292 O   0  0  0  0  0  0  0  0  0  0  0  0
  -46.3720   61.5103   63.3434 H   0  0  0  0  0  0  0  0  0  0  0  0
  -47.6780   62.2574   60.5237 H   0  0  0  0  0  0  0  0  0  0  0  0
 12 13  1  0  0  0
  9 10  2  0  0  0
  9  8  1  0  0  0
  6  7  2  0  0  0
  6  8  1  0  0  0
 10 11  1  0  0  0
  7  5  1  0  0  0
 16 17  2  0  0  0
 16 18  1  0  0  0
 17 19  1  0  0  0
 18 21  2  0  0  0
 13 11  1  0  0  0
  5  4  1  0  0  0
  4  3  1  0  0  0
  3  2  1  0  0  0
  2  1  1  0  0  0
  1 14  1  0  0  0
 14 15  1  0  0  0
 15 21  1  0  0  0
 19 20  2  0  0  0
 19 22  1  0  0  0
 20 21  1  0  0  0
 20 23  1  0  0  0
 22 24  1  0  0  0
 23 25  1  0  0  0
M  END
> <minimizedAffinity>
-8.20802

> <CNNscore>
0.3992634118

> <CNNaffinity>
6.5032615662

> <CNN_VS>
2.5965144634

> <CNNaffinity_variance>
0.0641406029

$$$$
/media/chris/experiments/cd1a-new-docking/inputs/ligands/5j1a_ligand.pdb


 25 25  0  0  0  0  0  0  0  0999 V2000
  -48.0930   59.3066   65.2947 C   0  0  0  0  0  0  0  0  0  0  0  0
  -48.9062   59.6917   64.0499 C   0  0  0  0  0  0  0  0  0  0  0  0
  -50.3958   59.5227   64.3159 C   0  0  0  0  0  0  0  0  0  0  0  0
  -51.1736   59.7690   63.0226 C   0  0  0  0  0  0  0  0  0  0  0  0
  -50.3004   59.4397   61.8120 C   0  0  0  0  0  0  0  0  0  0  0  0
  -50.3215   57.5494   59.9405 C   0  0  0  0  0  0  0  0  0  0  0  0
  -50.6181   58.0064   61.3823 C   0  0  0  0  0  0  0  0  0  0  0  0
  -49.8228   58.5231   58.8617 C   0  0  0  0  0  0  0  0  0  0  0  0
  -48.9694   57.7107   57.8769 C   0  0  0  0  0  0  0  0  0  0  0  0
  -47.4614   57.9925   57.6741 C   0  0  0  0  0  0  0  0  0  0  0  0
  -46.7234   59.0819   58.4765 C   0  0  0  0  0  0  0  0  0  0  0  0
  -46.7036   58.8832   61.0040 C   0  0  0  0  0  0  0  0  0  0  0  0
  -46.0799   58.4010   59.6922 C   0  0  0  0  0  0  0  0  0  0  0  0
  -46.6257   58.9206   64.9741 C   0  0  0  0  0  0  0  0  0  0  0  0
  -45.6144   60.0424   65.3095 C   0  0  0  0  0  0  0  0  0  0  0  0
  -45.5175   62.3154   62.3805 C   0  0  0  0  0  0  0  0  0  0  0  0
  -44.2527   62.0471   61.8405 C   0  0  0  0  0  0  0  0  0  0  0  0
  -45.9548   61.6411   63.5269 C   0  0  0  0  0  0  0  0  0  0  0  0
  -43.4421   61.1017   62.4685 C   0  0  0  0  0  0  0  0  0  0  0  0
  -43.8806   60.4399   63.6141 C   0  0  0  0  0  0  0  0  0  0  0  0
  -45.1318   60.7168   64.1798 C   0  0  0  0  0  0  0  0  0  0  0  0
  -42.2075   60.7834   62.0079 O   0  0  0  0  0  0  0  0  0  0  0  0
  -43.0502   59.5287   64.1990 O   0  0  0  0  0  0  0  0  0  0  0  0
  -41.8711   61.2032   61.2406 H   0  0  0  0  0  0  0  0  0  0  0  0
  -42.2137   59.3452   63.8185 H   0  0  0  0  0  0  0  0  0  0  0  0
 12 13  1  0  0  0
  9 10  2  0  0  0
  9  8  1  0  0  0
  6  7  2  0  0  0
  6  8  1  0  0  0
 10 11  1  0  0  0
  7  5  1  0  0  0
 16 17  2  0  0  0
 16 18  1  0  0  0
 17 19  1  0  0  0
 18 21  2  0  0  0
 13 11  1  0  0  0
  5  4  1  0  0  0
  4  3  1  0  0  0
  3  2  1  0  0  0
  2  1  1  0  0  0
  1 14  1  0  0  0
 14 15  1  0  0  0
 15 21  1  0  0  0
 19 20  2  0  0  0
 19 22  1  0  0  0
 20 21  1  0  0  0
 20 23  1  0  0  0
 22 24  1  0  0  0
 23 25  1  0  0  0
M  END
> <minimizedAffinity>
-7.58984

> <CNNscore>
0.3960652053

> <CNNaffinity>
6.2290678024

> <CNN_VS>
2.4671170712

> <CNNaffinity_variance>
0.1581518948

$$$$
/media/chris/experiments/cd1a-new-docking/inputs/ligands/5j1a_ligand.pdb


 25 25  0  0  0  0  0  0  0  0999 V2000
  -51.1704   59.8724   63.4097 C   0  0  0  0  0  0  0  0  0  0  0  0
  -50.3434   59.2847   62.2566 C   0  0  0  0  0  0  0  0  0  0  0  0
  -48.8913   59.7294   62.3644 C   0  0  0  0  0  0  0  0  0  0  0  0
  -47.9913   58.4993   62.4866 C   0  0  0  0  0  0  0  0  0  0  0  0
  -46.8081   58.6148   61.5258 C   0  0  0  0  0  0  0  0  0  0  0  0
  -46.8498   59.6725   59.0854 C   0  0  0  0  0  0  0  0  0  0  0  0
  -47.0682   59.8083   60.6050 C   0  0  0  0  0  0  0  0  0  0  0  0
  -46.2559   58.4028   58.4561 C   0  0  0  0  0  0  0  0  0  0  0  0
  -47.1846   57.9900   57.3049 C   0  0  0  0  0  0  0  0  0  0  0  0
  -48.2279   56.8578   57.4601 C   0  0  0  0  0  0  0  0  0  0  0  0
  -48.4177   56.1048   58.7915 C   0  0  0  0  0  0  0  0  0  0  0  0
  -50.1350   57.9698   58.7633 C   0  0  0  0  0  0  0  0  0  0  0  0
  -49.5133   56.8348   59.5804 C   0  0  0  0  0  0  0  0  0  0  0  0
  -50.3037   60.3675   64.5966 C   0  0  0  0  0  0  0  0  0  0  0  0
  -50.3828   59.4433   65.8348 C   0  0  0  0  0  0  0  0  0  0  0  0
  -47.9816   56.6216   66.0005 C   0  0  0  0  0  0  0  0  0  0  0  0
  -46.8749   57.2122   66.6250 C   0  0  0  0  0  0  0  0  0  0  0  0
  -49.1362   57.3725   65.7491 C   0  0  0  0  0  0  0  0  0  0  0  0
  -46.9470   58.5577   66.9852 C   0  0  0  0  0  0  0  0  0  0  0  0
  -48.0967   59.3014   66.7248 C   0  0  0  0  0  0  0  0  0  0  0  0
  -49.2005   58.7311   66.0779 C   0  0  0  0  0  0  0  0  0  0  0  0
  -45.9217   59.2018   67.5948 O   0  0  0  0  0  0  0  0  0  0  0  0
  -48.1188   60.6165   67.0880 O   0  0  0  0  0  0  0  0  0  0  0  0
  -45.1290   58.7417   67.7896 H   0  0  0  0  0  0  0  0  0  0  0  0
  -47.3791   60.9955   67.5206 H   0  0  0  0  0  0  0  0  0  0  0  0
 12 13  1  0  0  0
  9 10  2  0  0  0
  9  8  1  0  0  0
  6  7  2  0  0  0
  6  8  1  0  0  0
 10 11  1  0  0  0
  7  5  1  0  0  0
 16 17  2  0  0  0
 16 18  1  0  0  0
 17 19  1  0  0  0
 18 21  2  0  0  0
 13 11  1  0  0  0
  5  4  1  0  0  0
  4  3  1  0  0  0
  3  2  1  0  0  0
  2  1  1  0  0  0
  1 14  1  0  0  0
 14 15  1  0  0  0
 15 21  1  0  0  0
 19 20  2  0  0  0
 19 22  1  0  0  0
 20 21  1  0  0  0
 20 23  1  0  0  0
 22 24  1  0  0  0
 23 25  1  0  0  0
M  END
> <minimizedAffinity>
-8.03953

> <CNNscore>
0.3578961492

> <CNNaffinity>
6.2886457443

> <CNN_VS>
2.2506821156

> <CNNaffinity_variance>
0.2245132625

$$$$
/media/chris/experiments/cd1a-new-docking/inputs/ligands/5j1a_ligand.pdb


 25 25  0  0  0  0  0  0  0  0999 V2000
  -50.5175   59.8323   64.9210 C   0  0  0  0  0  0  0  0  0  0  0  0
  -50.0710   58.3707   65.0737 C   0  0  0  0  0  0  0  0  0  0  0  0
  -49.0973   58.2318   66.2359 C   0  0  0  0  0  0  0  0  0  0  0  0
  -48.0948   57.1190   65.9280 C   0  0  0  0  0  0  0  0  0  0  0  0
  -46.7692   57.3932   66.6379 C   0  0  0  0  0  0  0  0  0  0  0  0
  -45.2529   58.8150   64.9780 C   0  0  0  0  0  0  0  0  0  0  0  0
  -45.6728   57.4567   65.5730 C   0  0  0  0  0  0  0  0  0  0  0  0
  -45.9843   60.1204   65.3269 C   0  0  0  0  0  0  0  0  0  0  0  0
  -46.9277   60.4382   64.1577 C   0  0  0  0  0  0  0  0  0  0  0  0
  -46.5745   61.4956   63.0845 C   0  0  0  0  0  0  0  0  0  0  0  0
  -45.2386   62.2639   63.1096 C   0  0  0  0  0  0  0  0  0  0  0  0
  -43.0124   62.4137   61.9056 C   0  0  0  0  0  0  0  0  0  0  0  0
  -44.3465   61.6708   62.0106 C   0  0  0  0  0  0  0  0  0  0  0  0
  -51.0813   60.1582   63.5136 C   0  0  0  0  0  0  0  0  0  0  0  0
  -51.1104   58.9317   62.5709 C   0  0  0  0  0  0  0  0  0  0  0  0
  -48.7332   60.4331   60.1523 C   0  0  0  0  0  0  0  0  0  0  0  0
  -48.6609   59.4474   59.1590 C   0  0  0  0  0  0  0  0  0  0  0  0
  -49.5510   60.2489   61.2736 C   0  0  0  0  0  0  0  0  0  0  0  0
  -49.4143   58.2838   59.3127 C   0  0  0  0  0  0  0  0  0  0  0  0
  -50.2204   58.1035   60.4354 C   0  0  0  0  0  0  0  0  0  0  0  0
  -50.2824   59.0688   61.4486 C   0  0  0  0  0  0  0  0  0  0  0  0
  -49.4018   57.2847   58.3966 O   0  0  0  0  0  0  0  0  0  0  0  0
  -50.9337   56.9456   60.5469 O   0  0  0  0  0  0  0  0  0  0  0  0
  -48.8745   57.3622   57.6259 H   0  0  0  0  0  0  0  0  0  0  0  0
  -50.8905   56.3015   59.8677 H   0  0  0  0  0  0  0  0  0  0  0  0
 12 13  1  0  0  0
  9 10  2  0  0  0
  9  8  1  0  0  0
  6  7  2  0  0  0
  6  8  1  0  0  0
 10 11  1  0  0  0
  7  5  1  0  0  0
 16 17  2  0  0  0
 16 18  1  0  0  0
 17 19  1  0  0  0
 18 21  2  0  0  0
 13 11  1  0  0  0
  5  4  1  0  0  0
  4  3  1  0  0  0
  3  2  1  0  0  0
  2  1  1  0  0  0
  1 14  1  0  0  0
 14 15  1  0  0  0
 15 21  1  0  0  0
 19 20  2  0  0  0
 19 22  1  0  0  0
 20 21  1  0  0  0
 20 23  1  0  0  0
 22 24  1  0  0  0
 23 25  1  0  0  0
M  END
> <minimizedAffinity>
-7.58265

> <CNNscore>
0.3377993405

> <CNNaffinity>
6.4224662781

> <CNN_VS>
2.1695048809

> <CNNaffinity_variance>
0.2230720520

$$$$
