/media/chris/experiments/cd1a-new-docking/inputs/ligands/5j1a_ligand.pdb


 25 25  0  0  0  0  0  0  0  0999 V2000
  -50.1437   59.7258   61.8069 C   0  0  0  0  0  0  0  0  0  0  0  0
  -51.1509   59.7740   62.9655 C   0  0  0  0  0  0  0  0  0  0  0  0
  -50.4216   59.8520   64.2997 C   0  0  0  0  0  0  0  0  0  0  0  0
  -49.9505   58.4544   64.7032 C   0  0  0  0  0  0  0  0  0  0  0  0
  -49.5661   58.4348   66.1825 C   0  0  0  0  0  0  0  0  0  0  0  0
  -47.0487   59.0017   66.8288 C   0  0  0  0  0  0  0  0  0  0  0  0
  -48.4524   59.4628   66.3899 C   0  0  0  0  0  0  0  0  0  0  0  0
  -46.7456   57.5395   67.1906 C   0  0  0  0  0  0  0  0  0  0  0  0
  -46.3321   56.8277   65.8942 C   0  0  0  0  0  0  0  0  0  0  0  0
  -44.8480   56.5741   65.5368 C   0  0  0  0  0  0  0  0  0  0  0  0
  -43.7024   56.9904   66.4803 C   0  0  0  0  0  0  0  0  0  0  0  0
  -42.8897   59.3814   66.2541 C   0  0  0  0  0  0  0  0  0  0  0  0
  -42.7961   57.9559   65.7045 C   0  0  0  0  0  0  0  0  0  0  0  0
  -50.0492   58.3321   61.1333 C   0  0  0  0  0  0  0  0  0  0  0  0
  -50.0557   58.4018   59.5877 C   0  0  0  0  0  0  0  0  0  0  0  0
  -46.7846   58.9537   57.9291 C   0  0  0  0  0  0  0  0  0  0  0  0
  -46.3191   57.6441   57.7515 C   0  0  0  0  0  0  0  0  0  0  0  0
  -48.0247   59.1876   58.5354 C   0  0  0  0  0  0  0  0  0  0  0  0
  -47.1119   56.5848   58.1927 C   0  0  0  0  0  0  0  0  0  0  0  0
  -48.3420   56.8252   58.8027 C   0  0  0  0  0  0  0  0  0  0  0  0
  -48.8080   58.1296   59.0101 C   0  0  0  0  0  0  0  0  0  0  0  0
  -46.7349   55.2899   58.0559 O   0  0  0  0  0  0  0  0  0  0  0  0
  -49.0798   55.7580   59.2254 O   0  0  0  0  0  0  0  0  0  0  0  0
  -45.9159   55.0806   57.6517 H   0  0  0  0  0  0  0  0  0  0  0  0
  -48.7657   54.8863   59.0854 H   0  0  0  0  0  0  0  0  0  0  0  0
 12 13  1  0  0  0
  9 10  2  0  0  0
  9  8  1  0  0  0
  6  7  2  0  0  0
  6  8  1  0  0  0
 10 11  1  0  0  0
  7  5  1  0  0  0
 16 17  2  0  0  0
 16 18  1  0  0  0
 17 19  1  0  0  0
 18 21  2  0  0  0
 13 11  1  0  0  0
  5  4  1  0  0  0
  4  3  1  0  0  0
  3  2  1  0  0  0
  2  1  1  0  0  0
  1 14  1  0  0  0
 14 15  1  0  0  0
 15 21  1  0  0  0
 19 20  2  0  0  0
 19 22  1  0  0  0
 20 21  1  0  0  0
 20 23  1  0  0  0
 22 24  1  0  0  0
 23 25  1  0  0  0
M  END
> <minimizedAffinity>
-8.15854

> <CNNscore>
0.6972191930

> <CNNaffinity>
6.9502344131

> <CNN_VS>
4.8458366394

> <CNNaffinity_variance>
0.2825260758

$$$$
/media/chris/experiments/cd1a-new-docking/inputs/ligands/5j1a_ligand.pdb


 25 25  0  0  0  0  0  0  0  0999 V2000
  -46.9672   60.2447   60.8971 C   0  0  0  0  0  0  0  0  0  0  0  0
  -45.8448   61.2697   61.1171 C   0  0  0  0  0  0  0  0  0  0  0  0
  -46.2937   62.3462   62.0958 C   0  0  0  0  0  0  0  0  0  0  0  0
  -45.8498   61.9650   63.5085 C   0  0  0  0  0  0  0  0  0  0  0  0
  -46.8965   61.0649   64.1646 C   0  0  0  0  0  0  0  0  0  0  0  0
  -47.0400   59.7413   66.4677 C   0  0  0  0  0  0  0  0  0  0  0  0
  -46.2091   60.2940   65.2930 C   0  0  0  0  0  0  0  0  0  0  0  0
  -48.5395   60.0400   66.6188 C   0  0  0  0  0  0  0  0  0  0  0  0
  -49.3007   58.7970   66.1354 C   0  0  0  0  0  0  0  0  0  0  0  0
  -50.4848   58.8959   65.1441 C   0  0  0  0  0  0  0  0  0  0  0  0
  -50.9435   60.2458   64.5583 C   0  0  0  0  0  0  0  0  0  0  0  0
  -50.5301   58.7132   62.5814 C   0  0  0  0  0  0  0  0  0  0  0  0
  -51.0825   60.0648   63.0406 C   0  0  0  0  0  0  0  0  0  0  0  0
  -48.0490   60.7245   59.8948 C   0  0  0  0  0  0  0  0  0  0  0  0
  -48.9211   59.5720   59.3428 C   0  0  0  0  0  0  0  0  0  0  0  0
  -46.4183   58.1179   57.0239 C   0  0  0  0  0  0  0  0  0  0  0  0
  -46.7448   56.7557   57.0538 C   0  0  0  0  0  0  0  0  0  0  0  0
  -47.1502   59.0377   57.7845 C   0  0  0  0  0  0  0  0  0  0  0  0
  -47.8064   56.3378   57.8560 C   0  0  0  0  0  0  0  0  0  0  0  0
  -48.5260   57.2578   58.6168 C   0  0  0  0  0  0  0  0  0  0  0  0
  -48.1943   58.6186   58.6167 C   0  0  0  0  0  0  0  0  0  0  0  0
  -48.1869   55.0393   57.9383 O   0  0  0  0  0  0  0  0  0  0  0  0
  -49.5516   56.8020   59.3928 O   0  0  0  0  0  0  0  0  0  0  0  0
  -47.7321   54.3857   57.4444 H   0  0  0  0  0  0  0  0  0  0  0  0
  -49.7714   55.8911   59.3910 H   0  0  0  0  0  0  0  0  0  0  0  0
 12 13  1  0  0  0
  9 10  2  0  0  0
  9  8  1  0  0  0
  6  7  2  0  0  0
  6  8  1  0  0  0
 10 11  1  0  0  0
  7  5  1  0  0  0
 16 17  2  0  0  0
 16 18  1  0  0  0
 17 19  1  0  0  0
 18 21  2  0  0  0
 13 11  1  0  0  0
  5  4  1  0  0  0
  4  3  1  0  0  0
  3  2  1  0  0  0
  2  1  1  0  0  0
  1 14  1  0  0  0
 14 15  1  0  0  0
 15 21  1  0  0  0
 19 20  2  0  0  0
 19 22  1  0  0  0
 20 21  1  0  0  0
 20 23  1  0  0  0
 22 24  1  0  0  0
 23 25  1  0  0  0
M  END
> <minimizedAffinity>
-8.34979

> <CNNscore>
0.5896669030

> <CNNaffinity>
6.7336416245

> <CNN_VS>
3.9706056118

> <CNNaffinity_variance>
0.1723176241

$$$$
/media/chris/experiments/cd1a-new-docking/inputs/ligands/5j1a_ligand.pdb


 25 25  0  0  0  0  0  0  0  0999 V2000
  -47.4254   55.7136   58.8813 C   0  0  0  0  0  0  0  0  0  0  0  0
  -48.9108   56.1024   58.9193 C   0  0  0  0  0  0  0  0  0  0  0  0
  -49.3696   56.3058   60.3568 C   0  0  0  0  0  0  0  0  0  0  0  0
  -49.8670   57.7410   60.5327 C   0  0  0  0  0  0  0  0  0  0  0  0
  -49.8378   58.1311   62.0103 C   0  0  0  0  0  0  0  0  0  0  0  0
  -51.0823   59.9642   63.4825 C   0  0  0  0  0  0  0  0  0  0  0  0
  -51.0759   58.9838   62.2933 C   0  0  0  0  0  0  0  0  0  0  0  0
  -49.9219   60.0368   64.4871 C   0  0  0  0  0  0  0  0  0  0  0  0
  -50.2757   59.1066   65.6567 C   0  0  0  0  0  0  0  0  0  0  0  0
  -49.4343   57.8508   65.9877 C   0  0  0  0  0  0  0  0  0  0  0  0
  -48.1722   57.4830   65.1829 C   0  0  0  0  0  0  0  0  0  0  0  0
  -46.6526   57.0573   67.1673 C   0  0  0  0  0  0  0  0  0  0  0  0
  -47.4032   56.4287   65.9907 C   0  0  0  0  0  0  0  0  0  0  0  0
  -46.5297   56.7779   58.1958 C   0  0  0  0  0  0  0  0  0  0  0  0
  -45.6658   57.5818   59.1962 C   0  0  0  0  0  0  0  0  0  0  0  0
  -47.6689   60.6983   59.3706 C   0  0  0  0  0  0  0  0  0  0  0  0
  -47.5947   61.0210   60.7320 C   0  0  0  0  0  0  0  0  0  0  0  0
  -47.0223   59.5587   58.8774 C   0  0  0  0  0  0  0  0  0  0  0  0
  -46.8698   60.1850   61.5810 C   0  0  0  0  0  0  0  0  0  0  0  0
  -46.2349   59.0476   61.0847 C   0  0  0  0  0  0  0  0  0  0  0  0
  -46.3222   58.6987   59.7310 C   0  0  0  0  0  0  0  0  0  0  0  0
  -46.7475   60.4284   62.9089 O   0  0  0  0  0  0  0  0  0  0  0  0
  -45.5436   58.2550   61.9539 O   0  0  0  0  0  0  0  0  0  0  0  0
  -47.1573   61.1815   63.2869 H   0  0  0  0  0  0  0  0  0  0  0  0
  -45.4867   58.4907   62.8591 H   0  0  0  0  0  0  0  0  0  0  0  0
 12 13  1  0  0  0
  9 10  2  0  0  0
  9  8  1  0  0  0
  6  7  2  0  0  0
  6  8  1  0  0  0
 10 11  1  0  0  0
  7  5  1  0  0  0
 16 17  2  0  0  0
 16 18  1  0  0  0
 17 19  1  0  0  0
 18 21  2  0  0  0
 13 11  1  0  0  0
  5  4  1  0  0  0
  4  3  1  0  0  0
  3  2  1  0  0  0
  2  1  1  0  0  0
  1 14  1  0  0  0
 14 15  1  0  0  0
 15 21  1  0  0  0
 19 20  2  0  0  0
 19 22  1  0  0  0
 20 21  1  0  0  0
 20 23  1  0  0  0
 22 24  1  0  0  0
 23 25  1  0  0  0
M  END
> <minimizedAffinity>
-8.04080

> <CNNscore>
0.5715764165

> <CNNaffinity>
6.6482062340

> <CNN_VS>
3.7999579906

> <CNNaffinity_variance>
0.2769669890

$$$$
/media/chris/experiments/cd1a-new-docking/inputs/ligands/5j1a_ligand.pdb


 25 25  0  0  0  0  0  0  0  0999 V2000
  -50.0457   57.3439   59.6871 C   0  0  0  0  0  0  0  0  0  0  0  0
  -49.3023   56.0166   59.8983 C   0  0  0  0  0  0  0  0  0  0  0  0
  -48.1711   55.8755   58.8891 C   0  0  0  0  0  0  0  0  0  0  0  0
  -48.5372   56.6257   57.6079 C   0  0  0  0  0  0  0  0  0  0  0  0
  -47.3431   57.4441   57.1172 C   0  0  0  0  0  0  0  0  0  0  0  0
  -46.4624   59.0203   59.0707 C   0  0  0  0  0  0  0  0  0  0  0  0
  -46.4159   57.6802   58.3108 C   0  0  0  0  0  0  0  0  0  0  0  0
  -47.3306   60.1969   58.5988 C   0  0  0  0  0  0  0  0  0  0  0  0
  -48.2225   60.6051   59.7805 C   0  0  0  0  0  0  0  0  0  0  0  0
  -47.6415   61.2575   61.0578 C   0  0  0  0  0  0  0  0  0  0  0  0
  -46.1383   61.5669   61.2005 C   0  0  0  0  0  0  0  0  0  0  0  0
  -45.2291   61.5301   63.5670 C   0  0  0  0  0  0  0  0  0  0  0  0
  -45.9535   62.3579   62.5026 C   0  0  0  0  0  0  0  0  0  0  0  0
  -50.4764   58.0239   61.0127 C   0  0  0  0  0  0  0  0  0  0  0  0
  -49.4039   57.9255   62.1234 C   0  0  0  0  0  0  0  0  0  0  0  0
  -51.1778   60.2157   64.4393 C   0  0  0  0  0  0  0  0  0  0  0  0
  -50.4713   60.0316   65.6352 C   0  0  0  0  0  0  0  0  0  0  0  0
  -50.8101   59.5139   63.2851 C   0  0  0  0  0  0  0  0  0  0  0  0
  -49.4020   59.1362   65.6515 C   0  0  0  0  0  0  0  0  0  0  0  0
  -49.0462   58.4348   64.5006 C   0  0  0  0  0  0  0  0  0  0  0  0
  -49.7596   58.5895   63.3053 C   0  0  0  0  0  0  0  0  0  0  0  0
  -48.6669   58.9036   66.7664 O   0  0  0  0  0  0  0  0  0  0  0  0
  -47.9981   57.5636   64.5659 O   0  0  0  0  0  0  0  0  0  0  0  0
  -48.8697   59.3527   67.5634 H   0  0  0  0  0  0  0  0  0  0  0  0
  -47.5224   57.4620   65.3668 H   0  0  0  0  0  0  0  0  0  0  0  0
 12 13  1  0  0  0
  9 10  2  0  0  0
  9  8  1  0  0  0
  6  7  2  0  0  0
  6  8  1  0  0  0
 10 11  1  0  0  0
  7  5  1  0  0  0
 16 17  2  0  0  0
 16 18  1  0  0  0
 17 19  1  0  0  0
 18 21  2  0  0  0
 13 11  1  0  0  0
  5  4  1  0  0  0
  4  3  1  0  0  0
  3  2  1  0  0  0
  2  1  1  0  0  0
  1 14  1  0  0  0
 14 15  1  0  0  0
 15 21  1  0  0  0
 19 20  2  0  0  0
 19 22  1  0  0  0
 20 21  1  0  0  0
 20 23  1  0  0  0
 22 24  1  0  0  0
 23 25  1  0  0  0
M  END
> <minimizedAffinity>
-8.24458

> <CNNscore>
0.4834493995

> <CNNaffinity>
6.4724531174

> <CNN_VS>
3.1291036606

> <CNNaffinity_variance>
0.1317309886

$$$$
/media/chris/experiments/cd1a-new-docking/inputs/ligands/5j1a_ligand.pdb


 25 25  0  0  0  0  0  0  0  0999 V2000
  -48.9083   59.8066   61.6291 C   0  0  0  0  0  0  0  0  0  0  0  0
  -49.8917   58.8740   62.3518 C   0  0  0  0  0  0  0  0  0  0  0  0
  -51.1778   59.6165   62.6879 C   0  0  0  0  0  0  0  0  0  0  0  0
  -51.1446   60.0516   64.1533 C   0  0  0  0  0  0  0  0  0  0  0  0
  -50.2274   59.1292   64.9561 C   0  0  0  0  0  0  0  0  0  0  0  0
  -48.2458   60.3992   66.1955 C   0  0  0  0  0  0  0  0  0  0  0  0
  -49.7093   59.9174   66.1603 C   0  0  0  0  0  0  0  0  0  0  0  0
  -47.2322   60.0116   65.1077 C   0  0  0  0  0  0  0  0  0  0  0  0
  -45.8452   59.9910   65.7665 C   0  0  0  0  0  0  0  0  0  0  0  0
  -45.5057   59.0293   66.9303 C   0  0  0  0  0  0  0  0  0  0  0  0
  -46.5308   58.0125   67.4696 C   0  0  0  0  0  0  0  0  0  0  0  0
  -47.7240   56.3788   65.9415 C   0  0  0  0  0  0  0  0  0  0  0  0
  -46.4022   56.7378   66.6246 C   0  0  0  0  0  0  0  0  0  0  0  0
  -49.3811   60.2165   60.2101 C   0  0  0  0  0  0  0  0  0  0  0  0
  -49.7045   59.0056   59.3032 C   0  0  0  0  0  0  0  0  0  0  0  0
  -46.4807   58.3460   57.5921 C   0  0  0  0  0  0  0  0  0  0  0  0
  -46.2889   56.9805   57.8404 C   0  0  0  0  0  0  0  0  0  0  0  0
  -47.6178   59.0009   58.0801 C   0  0  0  0  0  0  0  0  0  0  0  0
  -47.2481   56.2925   58.5832 C   0  0  0  0  0  0  0  0  0  0  0  0
  -48.3741   56.9525   59.0728 C   0  0  0  0  0  0  0  0  0  0  0  0
  -48.5659   58.3226   58.8545 C   0  0  0  0  0  0  0  0  0  0  0  0
  -47.1380   54.9710   58.8646 O   0  0  0  0  0  0  0  0  0  0  0  0
  -49.2820   56.2404   59.8012 O   0  0  0  0  0  0  0  0  0  0  0  0
  -46.3978   54.4864   58.5560 H   0  0  0  0  0  0  0  0  0  0  0  0
  -49.1513   55.3239   59.9458 H   0  0  0  0  0  0  0  0  0  0  0  0
 12 13  1  0  0  0
  9 10  2  0  0  0
  9  8  1  0  0  0
  6  7  2  0  0  0
  6  8  1  0  0  0
 10 11  1  0  0  0
  7  5  1  0  0  0
 16 17  2  0  0  0
 16 18  1  0  0  0
 17 19  1  0  0  0
 18 21  2  0  0  0
 13 11  1  0  0  0
  5  4  1  0  0  0
  4  3  1  0  0  0
  3  2  1  0  0  0
  2  1  1  0  0  0
  1 14  1  0  0  0
 14 15  1  0  0  0
 15 21  1  0  0  0
 19 20  2  0  0  0
 19 22  1  0  0  0
 20 21  1  0  0  0
 20 23  1  0  0  0
 22 24  1  0  0  0
 23 25  1  0  0  0
M  END
> <minimizedAffinity>
-8.34124

> <CNNscore>
0.4583413899

> <CNNaffinity>
6.4815659523

> <CNN_VS>
2.9707698822

> <CNNaffinity_variance>
0.2988950908

$$$$
/media/chris/experiments/cd1a-new-docking/inputs/ligands/5j1a_ligand.pdb


 25 25  0  0  0  0  0  0  0  0999 V2000
  -45.6678   58.4156   61.5701 C   0  0  0  0  0  0  0  0  0  0  0  0
  -45.9916   58.6791   60.0920 C   0  0  0  0  0  0  0  0  0  0  0  0
  -45.8363   57.4013   59.2788 C   0  0  0  0  0  0  0  0  0  0  0  0
  -46.0147   57.7197   57.7939 C   0  0  0  0  0  0  0  0  0  0  0  0
  -47.2479   58.5991   57.5882 C   0  0  0  0  0  0  0  0  0  0  0  0
  -49.6562   57.7093   58.2847 C   0  0  0  0  0  0  0  0  0  0  0  0
  -48.4424   57.6776   57.3353 C   0  0  0  0  0  0  0  0  0  0  0  0
  -49.6678   58.5558   59.5669 C   0  0  0  0  0  0  0  0  0  0  0  0
  -49.6915   57.5814   60.7536 C   0  0  0  0  0  0  0  0  0  0  0  0
  -50.2983   57.9726   62.1223 C   0  0  0  0  0  0  0  0  0  0  0  0
  -50.9456   59.3511   62.3602 C   0  0  0  0  0  0  0  0  0  0  0  0
  -50.7847   59.7496   64.8588 C   0  0  0  0  0  0  0  0  0  0  0  0
  -50.1645   60.0369   63.4893 C   0  0  0  0  0  0  0  0  0  0  0  0
  -46.7834   58.8906   62.5369 C   0  0  0  0  0  0  0  0  0  0  0  0
  -46.2620   59.8214   63.6572 C   0  0  0  0  0  0  0  0  0  0  0  0
  -44.6397   62.5839   61.7884 C   0  0  0  0  0  0  0  0  0  0  0  0
  -43.3159   62.5091   62.2414 C   0  0  0  0  0  0  0  0  0  0  0  0
  -45.6020   61.6851   62.2640 C   0  0  0  0  0  0  0  0  0  0  0  0
  -42.9804   61.5277   63.1739 C   0  0  0  0  0  0  0  0  0  0  0  0
  -43.9453   60.6410   63.6491 C   0  0  0  0  0  0  0  0  0  0  0  0
  -45.2777   60.7206   63.2248 C   0  0  0  0  0  0  0  0  0  0  0  0
  -41.7227   61.3875   63.6596 O   0  0  0  0  0  0  0  0  0  0  0  0
  -43.5728   59.7023   64.5667 O   0  0  0  0  0  0  0  0  0  0  0  0
  -41.0414   61.9611   63.3686 H   0  0  0  0  0  0  0  0  0  0  0  0
  -42.6807   59.6512   64.8489 H   0  0  0  0  0  0  0  0  0  0  0  0
 12 13  1  0  0  0
  9 10  2  0  0  0
  9  8  1  0  0  0
  6  7  2  0  0  0
  6  8  1  0  0  0
 10 11  1  0  0  0
  7  5  1  0  0  0
 16 17  2  0  0  0
 16 18  1  0  0  0
 17 19  1  0  0  0
 18 21  2  0  0  0
 13 11  1  0  0  0
  5  4  1  0  0  0
  4  3  1  0  0  0
  3  2  1  0  0  0
  2  1  1  0  0  0
  1 14  1  0  0  0
 14 15  1  0  0  0
 15 21  1  0  0  0
 19 20  2  0  0  0
 19 22  1  0  0  0
 20 21  1  0  0  0
 20 23  1  0  0  0
 22 24  1  0  0  0
 23 25  1  0  0  0
M  END
> <minimizedAffinity>
-7.96490

> <CNNscore>
0.4556330740

> <CNNaffinity>
6.2995471954

> <CNN_VS>
2.8702819347

> <CNNaffinity_variance>
0.1259101778

$$$$
/media/chris/experiments/cd1a-new-docking/inputs/ligands/5j1a_ligand.pdb


 25 25  0  0  0  0  0  0  0  0999 V2000
  -51.0381   58.1545   61.5314 C   0  0  0  0  0  0  0  0  0  0  0  0
  -50.1738   58.4175   62.7735 C   0  0  0  0  0  0  0  0  0  0  0  0
  -50.2725   59.8789   63.1890 C   0  0  0  0  0  0  0  0  0  0  0  0
  -50.9057   59.9701   64.5778 C   0  0  0  0  0  0  0  0  0  0  0  0
  -50.2769   58.9367   65.5123 C   0  0  0  0  0  0  0  0  0  0  0  0
  -47.8908   59.0617   66.6816 C   0  0  0  0  0  0  0  0  0  0  0  0
  -49.2830   59.6677   66.4167 C   0  0  0  0  0  0  0  0  0  0  0  0
  -47.4940   57.6705   66.1641 C   0  0  0  0  0  0  0  0  0  0  0  0
  -46.0245   57.7519   65.7253 C   0  0  0  0  0  0  0  0  0  0  0  0
  -45.6177   58.2282   64.3103 C   0  0  0  0  0  0  0  0  0  0  0  0
  -46.6640   58.6820   63.2735 C   0  0  0  0  0  0  0  0  0  0  0  0
  -45.5315   60.7823   64.1304 C   0  0  0  0  0  0  0  0  0  0  0  0
  -46.6282   60.2156   63.2254 C   0  0  0  0  0  0  0  0  0  0  0  0
  -50.4026   57.1409   60.5447 C   0  0  0  0  0  0  0  0  0  0  0  0
  -48.8870   56.9344   60.7768 C   0  0  0  0  0  0  0  0  0  0  0  0
  -46.8820   59.0654   58.4976 C   0  0  0  0  0  0  0  0  0  0  0  0
  -46.5721   58.1770   57.4594 C   0  0  0  0  0  0  0  0  0  0  0  0
  -47.6518   58.6398   59.5868 C   0  0  0  0  0  0  0  0  0  0  0  0
  -47.0416   56.8659   57.5359 C   0  0  0  0  0  0  0  0  0  0  0  0
  -47.8010   56.4466   58.6270 C   0  0  0  0  0  0  0  0  0  0  0  0
  -48.0964   57.3165   59.6844 C   0  0  0  0  0  0  0  0  0  0  0  0
  -46.7880   55.9467   56.5725 O   0  0  0  0  0  0  0  0  0  0  0  0
  -48.2322   55.1526   58.6627 O   0  0  0  0  0  0  0  0  0  0  0  0
  -46.2817   56.1836   55.8205 H   0  0  0  0  0  0  0  0  0  0  0  0
  -48.0332   54.5727   57.9540 H   0  0  0  0  0  0  0  0  0  0  0  0
 12 13  1  0  0  0
  9 10  2  0  0  0
  9  8  1  0  0  0
  6  7  2  0  0  0
  6  8  1  0  0  0
 10 11  1  0  0  0
  7  5  1  0  0  0
 16 17  2  0  0  0
 16 18  1  0  0  0
 17 19  1  0  0  0
 18 21  2  0  0  0
 13 11  1  0  0  0
  5  4  1  0  0  0
  4  3  1  0  0  0
  3  2  1  0  0  0
  2  1  1  0  0  0
  1 14  1  0  0  0
 14 15  1  0  0  0
 15 21  1  0  0  0
 19 20  2  0  0  0
 19 22  1  0  0  0
 20 21  1  0  0  0
 20 23  1  0  0  0
 22 24  1  0  0  0
 23 25  1  0  0  0
M  END
> <minimizedAffinity>
-7.62473

> <CNNscore>
0.4531143904

> <CNNaffinity>
6.8438119888

> <CNN_VS>
3.1010296345

> <CNNaffinity_variance>
0.0920141488

$$$$
/media/chris/experiments/cd1a-new-docking/inputs/ligands/5j1a_ligand.pdb


 25 25  0  0  0  0  0  0  0  0999 V2000
  -49.8936   57.9670   66.0054 C   0  0  0  0  0  0  0  0  0  0  0  0
  -50.1309   59.4807   66.1120 C   0  0  0  0  0  0  0  0  0  0  0  0
  -49.8960   60.1508   64.7652 C   0  0  0  0  0  0  0  0  0  0  0  0
  -51.1776   60.0829   63.9340 C   0  0  0  0  0  0  0  0  0  0  0  0
  -50.8364   59.9584   62.4492 C   0  0  0  0  0  0  0  0  0  0  0  0
  -48.8767   58.9610   60.9522 C   0  0  0  0  0  0  0  0  0  0  0  0
  -49.5144   59.1973   62.3353 C   0  0  0  0  0  0  0  0  0  0  0  0
  -49.5846   59.3591   59.6480 C   0  0  0  0  0  0  0  0  0  0  0  0
  -49.6096   58.1155   58.7474 C   0  0  0  0  0  0  0  0  0  0  0  0
  -48.5020   57.8385   57.7028 C   0  0  0  0  0  0  0  0  0  0  0  0
  -47.2921   58.7782   57.5328 C   0  0  0  0  0  0  0  0  0  0  0  0
  -45.9393   57.4077   59.1820 C   0  0  0  0  0  0  0  0  0  0  0  0
  -46.0250   57.9396   57.7493 C   0  0  0  0  0  0  0  0  0  0  0  0
  -48.5598   57.6026   65.3032 C   0  0  0  0  0  0  0  0  0  0  0  0
  -47.4023   57.3386   66.2952 C   0  0  0  0  0  0  0  0  0  0  0  0
  -45.2826   60.1290   65.0800 C   0  0  0  0  0  0  0  0  0  0  0  0
  -43.9973   59.7000   65.4365 C   0  0  0  0  0  0  0  0  0  0  0  0
  -46.3989   59.3345   65.3681 C   0  0  0  0  0  0  0  0  0  0  0  0
  -43.8552   58.4730   66.0841 C   0  0  0  0  0  0  0  0  0  0  0  0
  -44.9716   57.6906   66.3750 C   0  0  0  0  0  0  0  0  0  0  0  0
  -46.2645   58.1187   66.0479 C   0  0  0  0  0  0  0  0  0  0  0  0
  -42.6471   57.9859   66.4595 O   0  0  0  0  0  0  0  0  0  0  0  0
  -44.7849   56.5011   67.0168 O   0  0  0  0  0  0  0  0  0  0  0  0
  -41.8688   58.4775   66.2845 H   0  0  0  0  0  0  0  0  0  0  0  0
  -43.9189   56.2170   67.2345 H   0  0  0  0  0  0  0  0  0  0  0  0
 12 13  1  0  0  0
  9 10  2  0  0  0
  9  8  1  0  0  0
  6  7  2  0  0  0
  6  8  1  0  0  0
 10 11  1  0  0  0
  7  5  1  0  0  0
 16 17  2  0  0  0
 16 18  1  0  0  0
 17 19  1  0  0  0
 18 21  2  0  0  0
 13 11  1  0  0  0
  5  4  1  0  0  0
  4  3  1  0  0  0
  3  2  1  0  0  0
  2  1  1  0  0  0
  1 14  1  0  0  0
 14 15  1  0  0  0
 15 21  1  0  0  0
 19 20  2  0  0  0
 19 22  1  0  0  0
 20 21  1  0  0  0
 20 23  1  0  0  0
 22 24  1  0  0  0
 23 25  1  0  0  0
M  END
> <minimizedAffinity>
-8.11856

> <CNNscore>
0.4478689432

> <CNNaffinity>
6.4921202660

> <CNN_VS>
2.9076189995

> <CNNaffinity_variance>
0.2427603304

$$$$
/media/chris/experiments/cd1a-new-docking/inputs/ligands/5j1a_ligand.pdb


 25 25  0  0  0  0  0  0  0  0999 V2000
  -45.8070   57.3787   58.9740 C   0  0  0  0  0  0  0  0  0  0  0  0
  -46.3366   58.1630   57.7643 C   0  0  0  0  0  0  0  0  0  0  0  0
  -47.6460   58.8570   58.1137 C   0  0  0  0  0  0  0  0  0  0  0  0
  -48.8098   57.8938   57.8777 C   0  0  0  0  0  0  0  0  0  0  0  0
  -49.9983   58.2777   58.7588 C   0  0  0  0  0  0  0  0  0  0  0  0
  -50.2261   57.6664   61.3377 C   0  0  0  0  0  0  0  0  0  0  0  0
  -50.1196   57.2272   59.8642 C   0  0  0  0  0  0  0  0  0  0  0  0
  -50.0922   59.1367   61.7632 C   0  0  0  0  0  0  0  0  0  0  0  0
  -50.5532   59.2297   63.2251 C   0  0  0  0  0  0  0  0  0  0  0  0
  -49.5837   58.9864   64.4065 C   0  0  0  0  0  0  0  0  0  0  0  0
  -48.0916   58.6720   64.1817 C   0  0  0  0  0  0  0  0  0  0  0  0
  -48.1597   60.7303   65.6605 C   0  0  0  0  0  0  0  0  0  0  0  0
  -47.2821   59.8223   64.7956 C   0  0  0  0  0  0  0  0  0  0  0  0
  -46.3867   57.8701   60.3259 C   0  0  0  0  0  0  0  0  0  0  0  0
  -45.3046   58.4057   61.2932 C   0  0  0  0  0  0  0  0  0  0  0  0
  -46.7522   61.8162   61.4631 C   0  0  0  0  0  0  0  0  0  0  0  0
  -45.6862   62.5637   61.9808 C   0  0  0  0  0  0  0  0  0  0  0  0
  -46.6090   60.4418   61.2380 C   0  0  0  0  0  0  0  0  0  0  0  0
  -44.4873   61.9119   62.2688 C   0  0  0  0  0  0  0  0  0  0  0  0
  -44.3541   60.5418   62.0497 C   0  0  0  0  0  0  0  0  0  0  0  0
  -45.4194   59.7774   61.5572 C   0  0  0  0  0  0  0  0  0  0  0  0
  -43.4089   62.5633   62.7691 O   0  0  0  0  0  0  0  0  0  0  0  0
  -43.1651   59.9454   62.3537 O   0  0  0  0  0  0  0  0  0  0  0  0
  -43.4524   63.4849   62.9324 H   0  0  0  0  0  0  0  0  0  0  0  0
  -42.4539   60.4591   62.6831 H   0  0  0  0  0  0  0  0  0  0  0  0
 12 13  1  0  0  0
  9 10  2  0  0  0
  9  8  1  0  0  0
  6  7  2  0  0  0
  6  8  1  0  0  0
 10 11  1  0  0  0
  7  5  1  0  0  0
 16 17  2  0  0  0
 16 18  1  0  0  0
 17 19  1  0  0  0
 18 21  2  0  0  0
 13 11  1  0  0  0
  5  4  1  0  0  0
  4  3  1  0  0  0
  3  2  1  0  0  0
  2  1  1  0  0  0
  1 14  1  0  0  0
 14 15  1  0  0  0
 15 21  1  0  0  0
 19 20  2  0  0  0
 19 22  1  0  0  0
 20 21  1  0  0  0
 20 23  1  0  0  0
 22 24  1  0  0  0
 23 25  1  0  0  0
M  END
> <minimizedAffinity>
-7.70224

> <CNNscore>
0.3676925898

> <CNNaffinity>
6.2315645218

> <CNN_VS>
2.2913000584

> <CNNaffinity_variance>
0.1470488906

$$$$
