/media/chris/experiments/cd1a-new-docking/inputs/ligands/5j1a_ligand.pdb


 25 25  0  0  0  0  0  0  0  0999 V2000
  -51.1096   57.9346   61.1885 C   0  0  0  0  0  0  0  0  0  0  0  0
  -50.5447   59.1878   61.8736 C   0  0  0  0  0  0  0  0  0  0  0  0
  -50.4466   58.9719   63.3775 C   0  0  0  0  0  0  0  0  0  0  0  0
  -51.1767   60.1035   64.1016 C   0  0  0  0  0  0  0  0  0  0  0  0
  -50.8668   60.0580   65.5977 C   0  0  0  0  0  0  0  0  0  0  0  0
  -48.7246   58.7299   66.4481 C   0  0  0  0  0  0  0  0  0  0  0  0
  -50.1608   58.7325   65.8888 C   0  0  0  0  0  0  0  0  0  0  0  0
  -47.9113   60.0225   66.6160 C   0  0  0  0  0  0  0  0  0  0  0  0
  -47.4319   60.4417   65.2186 C   0  0  0  0  0  0  0  0  0  0  0  0
  -45.9440   60.3538   64.8027 C   0  0  0  0  0  0  0  0  0  0  0  0
  -44.8647   59.8061   65.7569 C   0  0  0  0  0  0  0  0  0  0  0  0
  -45.2097   57.4782   66.7004 C   0  0  0  0  0  0  0  0  0  0  0  0
  -44.7424   58.2987   65.4958 C   0  0  0  0  0  0  0  0  0  0  0  0
  -50.2461   57.4442   59.9974 C   0  0  0  0  0  0  0  0  0  0  0  0
  -48.7269   57.4980   60.2846 C   0  0  0  0  0  0  0  0  0  0  0  0
  -46.5910   58.6496   57.4796 C   0  0  0  0  0  0  0  0  0  0  0  0
  -46.4053   57.4701   56.7466 C   0  0  0  0  0  0  0  0  0  0  0  0
  -47.3649   58.6431   58.6463 C   0  0  0  0  0  0  0  0  0  0  0  0
  -47.0016   56.2951   57.2040 C   0  0  0  0  0  0  0  0  0  0  0  0
  -47.7643   56.2940   58.3708 C   0  0  0  0  0  0  0  0  0  0  0  0
  -47.9370   57.4600   59.1275 C   0  0  0  0  0  0  0  0  0  0  0  0
  -46.8725   55.1139   56.5516 O   0  0  0  0  0  0  0  0  0  0  0  0
  -48.3221   55.1194   58.7842 O   0  0  0  0  0  0  0  0  0  0  0  0
  -46.3689   55.0669   55.7629 H   0  0  0  0  0  0  0  0  0  0  0  0
  -48.2050   54.3408   58.2761 H   0  0  0  0  0  0  0  0  0  0  0  0
 12 13  1  0  0  0
  9 10  2  0  0  0
  9  8  1  0  0  0
  6  7  2  0  0  0
  6  8  1  0  0  0
 10 11  1  0  0  0
  7  5  1  0  0  0
 16 17  2  0  0  0
 16 18  1  0  0  0
 17 19  1  0  0  0
 18 21  2  0  0  0
 13 11  1  0  0  0
  5  4  1  0  0  0
  4  3  1  0  0  0
  3  2  1  0  0  0
  2  1  1  0  0  0
  1 14  1  0  0  0
 14 15  1  0  0  0
 15 21  1  0  0  0
 19 20  2  0  0  0
 19 22  1  0  0  0
 20 21  1  0  0  0
 20 23  1  0  0  0
 22 24  1  0  0  0
 23 25  1  0  0  0
M  END
> <minimizedAffinity>
-8.44455

> <CNNscore>
0.6491799355

> <CNNaffinity>
6.9513726234

> <CNN_VS>
4.5126914978

> <CNNaffinity_variance>
0.2213076055

$$$$
/media/chris/experiments/cd1a-new-docking/inputs/ligands/5j1a_ligand.pdb


 25 25  0  0  0  0  0  0  0  0999 V2000
  -48.2135   60.1776   65.0537 C   0  0  0  0  0  0  0  0  0  0  0  0
  -49.4493   59.3344   64.7056 C   0  0  0  0  0  0  0  0  0  0  0  0
  -50.6308   60.2359   64.3745 C   0  0  0  0  0  0  0  0  0  0  0  0
  -51.1771   59.8702   62.9940 C   0  0  0  0  0  0  0  0  0  0  0  0
  -50.0938   59.1814   62.1643 C   0  0  0  0  0  0  0  0  0  0  0  0
  -50.4787   57.5081   60.1325 C   0  0  0  0  0  0  0  0  0  0  0  0
  -50.6824   57.8810   61.6140 C   0  0  0  0  0  0  0  0  0  0  0  0
  -49.8004   58.4610   59.1364 C   0  0  0  0  0  0  0  0  0  0  0  0
  -49.4980   57.6508   57.8673 C   0  0  0  0  0  0  0  0  0  0  0  0
  -48.1528   57.7812   57.1136 C   0  0  0  0  0  0  0  0  0  0  0  0
  -47.0265   58.7059   57.6156 C   0  0  0  0  0  0  0  0  0  0  0  0
  -46.2765   56.9922   59.3270 C   0  0  0  0  0  0  0  0  0  0  0  0
  -45.8768   57.8102   58.0967 C   0  0  0  0  0  0  0  0  0  0  0  0
  -46.9316   59.7247   64.3079 C   0  0  0  0  0  0  0  0  0  0  0  0
  -45.6441   60.3858   64.8544 C   0  0  0  0  0  0  0  0  0  0  0  0
  -44.7744   62.4708   61.9129 C   0  0  0  0  0  0  0  0  0  0  0  0
  -43.3968   62.2469   61.7894 C   0  0  0  0  0  0  0  0  0  0  0  0
  -45.5045   61.8448   62.9302 C   0  0  0  0  0  0  0  0  0  0  0  0
  -42.7715   61.3946   62.6994 C   0  0  0  0  0  0  0  0  0  0  0  0
  -43.5030   60.7808   63.7148 C   0  0  0  0  0  0  0  0  0  0  0  0
  -44.8756   61.0157   63.8660 C   0  0  0  0  0  0  0  0  0  0  0  0
  -41.4443   61.1241   62.6467 O   0  0  0  0  0  0  0  0  0  0  0  0
  -42.8475   59.9611   64.5867 O   0  0  0  0  0  0  0  0  0  0  0  0
  -40.9127   61.5143   61.9811 H   0  0  0  0  0  0  0  0  0  0  0  0
  -41.9293   59.8057   64.4834 H   0  0  0  0  0  0  0  0  0  0  0  0
 12 13  1  0  0  0
  9 10  2  0  0  0
  9  8  1  0  0  0
  6  7  2  0  0  0
  6  8  1  0  0  0
 10 11  1  0  0  0
  7  5  1  0  0  0
 16 17  2  0  0  0
 16 18  1  0  0  0
 17 19  1  0  0  0
 18 21  2  0  0  0
 13 11  1  0  0  0
  5  4  1  0  0  0
  4  3  1  0  0  0
  3  2  1  0  0  0
  2  1  1  0  0  0
  1 14  1  0  0  0
 14 15  1  0  0  0
 15 21  1  0  0  0
 19 20  2  0  0  0
 19 22  1  0  0  0
 20 21  1  0  0  0
 20 23  1  0  0  0
 22 24  1  0  0  0
 23 25  1  0  0  0
M  END
> <minimizedAffinity>
-8.05280

> <CNNscore>
0.5827224255

> <CNNaffinity>
6.3100576401

> <CNN_VS>
3.6770122051

> <CNNaffinity_variance>
0.1115306988

$$$$
/media/chris/experiments/cd1a-new-docking/inputs/ligands/5j1a_ligand.pdb


 25 25  0  0  0  0  0  0  0  0999 V2000
  -48.2495   58.4945   65.7650 C   0  0  0  0  0  0  0  0  0  0  0  0
  -48.5649   57.8056   64.4289 C   0  0  0  0  0  0  0  0  0  0  0  0
  -49.2929   58.7641   63.4965 C   0  0  0  0  0  0  0  0  0  0  0  0
  -48.4743   58.9490   62.2184 C   0  0  0  0  0  0  0  0  0  0  0  0
  -49.4038   59.1591   61.0232 C   0  0  0  0  0  0  0  0  0  0  0  0
  -48.0575   61.0432   59.7142 C   0  0  0  0  0  0  0  0  0  0  0  0
  -49.2638   60.6141   60.5721 C   0  0  0  0  0  0  0  0  0  0  0  0
  -46.9049   60.0814   59.3868 C   0  0  0  0  0  0  0  0  0  0  0  0
  -47.1100   59.6027   57.9421 C   0  0  0  0  0  0  0  0  0  0  0  0
  -46.7001   58.1825   57.4840 C   0  0  0  0  0  0  0  0  0  0  0  0
  -46.0956   57.1562   58.4622 C   0  0  0  0  0  0  0  0  0  0  0  0
  -47.3221   55.4831   57.0044 C   0  0  0  0  0  0  0  0  0  0  0  0
  -46.9943   55.9123   58.4365 C   0  0  0  0  0  0  0  0  0  0  0  0
  -47.6561   59.9173   65.5969 C   0  0  0  0  0  0  0  0  0  0  0  0
  -46.1163   59.9207   65.4480 C   0  0  0  0  0  0  0  0  0  0  0  0
  -46.1172   62.2785   62.5850 C   0  0  0  0  0  0  0  0  0  0  0  0
  -44.8419   62.0805   62.0393 C   0  0  0  0  0  0  0  0  0  0  0  0
  -46.5252   61.5535   63.7110 C   0  0  0  0  0  0  0  0  0  0  0  0
  -43.9912   61.1536   62.6413 C   0  0  0  0  0  0  0  0  0  0  0  0
  -44.4009   60.4409   63.7671 C   0  0  0  0  0  0  0  0  0  0  0  0
  -45.6629   60.6473   64.3386 C   0  0  0  0  0  0  0  0  0  0  0  0
  -42.7440   60.9021   62.1736 O   0  0  0  0  0  0  0  0  0  0  0  0
  -43.5320   59.5502   64.3268 O   0  0  0  0  0  0  0  0  0  0  0  0
  -42.4260   61.3578   61.4191 H   0  0  0  0  0  0  0  0  0  0  0  0
  -42.6884   59.4140   63.9425 H   0  0  0  0  0  0  0  0  0  0  0  0
 12 13  1  0  0  0
  9 10  2  0  0  0
  9  8  1  0  0  0
  6  7  2  0  0  0
  6  8  1  0  0  0
 10 11  1  0  0  0
  7  5  1  0  0  0
 16 17  2  0  0  0
 16 18  1  0  0  0
 17 19  1  0  0  0
 18 21  2  0  0  0
 13 11  1  0  0  0
  5  4  1  0  0  0
  4  3  1  0  0  0
  3  2  1  0  0  0
  2  1  1  0  0  0
  1 14  1  0  0  0
 14 15  1  0  0  0
 15 21  1  0  0  0
 19 20  2  0  0  0
 19 22  1  0  0  0
 20 21  1  0  0  0
 20 23  1  0  0  0
 22 24  1  0  0  0
 23 25  1  0  0  0
M  END
> <minimizedAffinity>
-7.45247

> <CNNscore>
0.4682492018

> <CNNaffinity>
6.3578228951

> <CNN_VS>
2.9770455360

> <CNNaffinity_variance>
0.0867200270

$$$$
/media/chris/experiments/cd1a-new-docking/inputs/ligands/5j1a_ligand.pdb


 25 25  0  0  0  0  0  0  0  0999 V2000
  -46.4760   57.1897   57.1533 C   0  0  0  0  0  0  0  0  0  0  0  0
  -47.8809   57.1933   56.5324 C   0  0  0  0  0  0  0  0  0  0  0  0
  -48.9341   56.9353   57.6012 C   0  0  0  0  0  0  0  0  0  0  0  0
  -49.2637   58.2461   58.3161 C   0  0  0  0  0  0  0  0  0  0  0  0
  -50.5713   58.1068   59.0954 C   0  0  0  0  0  0  0  0  0  0  0  0
  -50.1527   58.0613   61.7220 C   0  0  0  0  0  0  0  0  0  0  0  0
  -50.2719   57.3229   60.3745 C   0  0  0  0  0  0  0  0  0  0  0  0
  -50.2029   59.5938   61.8205 C   0  0  0  0  0  0  0  0  0  0  0  0
  -51.1742   59.9437   62.9574 C   0  0  0  0  0  0  0  0  0  0  0  0
  -50.7464   59.8960   64.4438 C   0  0  0  0  0  0  0  0  0  0  0  0
  -49.3098   59.5289   64.8644 C   0  0  0  0  0  0  0  0  0  0  0  0
  -48.2743   57.4325   65.8449 C   0  0  0  0  0  0  0  0  0  0  0  0
  -49.4107   58.4520   65.9533 C   0  0  0  0  0  0  0  0  0  0  0  0
  -46.2124   58.4031   58.0822 C   0  0  0  0  0  0  0  0  0  0  0  0
  -45.9282   57.9970   59.5477 C   0  0  0  0  0  0  0  0  0  0  0  0
  -47.1179   61.2144   60.9579 C   0  0  0  0  0  0  0  0  0  0  0  0
  -46.5765   61.1885   62.2499 C   0  0  0  0  0  0  0  0  0  0  0  0
  -46.8914   60.1522   60.0745 C   0  0  0  0  0  0  0  0  0  0  0  0
  -45.8144   60.0859   62.6359 C   0  0  0  0  0  0  0  0  0  0  0  0
  -45.5994   59.0281   61.7539 C   0  0  0  0  0  0  0  0  0  0  0  0
  -46.1560   59.0287   60.4686 C   0  0  0  0  0  0  0  0  0  0  0  0
  -45.2542   59.9855   63.8661 O   0  0  0  0  0  0  0  0  0  0  0  0
  -44.8539   57.9668   62.1779 O   0  0  0  0  0  0  0  0  0  0  0  0
  -45.3721   60.6727   64.4921 H   0  0  0  0  0  0  0  0  0  0  0  0
  -44.4828   57.9690   63.0383 H   0  0  0  0  0  0  0  0  0  0  0  0
 12 13  1  0  0  0
  9 10  2  0  0  0
  9  8  1  0  0  0
  6  7  2  0  0  0
  6  8  1  0  0  0
 10 11  1  0  0  0
  7  5  1  0  0  0
 16 17  2  0  0  0
 16 18  1  0  0  0
 17 19  1  0  0  0
 18 21  2  0  0  0
 13 11  1  0  0  0
  5  4  1  0  0  0
  4  3  1  0  0  0
  3  2  1  0  0  0
  2  1  1  0  0  0
  1 14  1  0  0  0
 14 15  1  0  0  0
 15 21  1  0  0  0
 19 20  2  0  0  0
 19 22  1  0  0  0
 20 21  1  0  0  0
 20 23  1  0  0  0
 22 24  1  0  0  0
 23 25  1  0  0  0
M  END
> <minimizedAffinity>
-8.15953

> <CNNscore>
0.4311811924

> <CNNaffinity>
6.5530967712

> <CNN_VS>
2.8255720139

> <CNNaffinity_variance>
0.1299020946

$$$$
/media/chris/experiments/cd1a-new-docking/inputs/ligands/5j1a_ligand.pdb


 25 25  0  0  0  0  0  0  0  0999 V2000
  -51.0670   57.6763   60.8980 C   0  0  0  0  0  0  0  0  0  0  0  0
  -50.4482   58.8831   61.6191 C   0  0  0  0  0  0  0  0  0  0  0  0
  -50.6046   58.7381   63.1266 C   0  0  0  0  0  0  0  0  0  0  0  0
  -51.1576   60.0400   63.7072 C   0  0  0  0  0  0  0  0  0  0  0  0
  -50.5297   60.3162   65.0732 C   0  0  0  0  0  0  0  0  0  0  0  0
  -49.0298   58.4575   66.2444 C   0  0  0  0  0  0  0  0  0  0  0  0
  -50.4132   58.9820   65.8125 C   0  0  0  0  0  0  0  0  0  0  0  0
  -47.7270   59.1709   65.8515 C   0  0  0  0  0  0  0  0  0  0  0  0
  -47.1480   58.4240   64.6410 C   0  0  0  0  0  0  0  0  0  0  0  0
  -47.0074   59.0965   63.2544 C   0  0  0  0  0  0  0  0  0  0  0  0
  -47.4078   60.5662   63.0199 C   0  0  0  0  0  0  0  0  0  0  0  0
  -45.5149   60.5603   61.3331 C   0  0  0  0  0  0  0  0  0  0  0  0
  -46.9745   60.9388   61.5954 C   0  0  0  0  0  0  0  0  0  0  0  0
  -50.0114   56.7209   60.2837 C   0  0  0  0  0  0  0  0  0  0  0  0
  -48.5603   57.2318   60.4466 C   0  0  0  0  0  0  0  0  0  0  0  0
  -46.8311   58.8375   57.5853 C   0  0  0  0  0  0  0  0  0  0  0  0
  -46.5759   57.7461   56.7445 C   0  0  0  0  0  0  0  0  0  0  0  0
  -47.4918   58.6513   58.8054 C   0  0  0  0  0  0  0  0  0  0  0  0
  -46.9887   56.4768   57.1492 C   0  0  0  0  0  0  0  0  0  0  0  0
  -47.6390   56.2974   58.3690 C   0  0  0  0  0  0  0  0  0  0  0  0
  -47.8776   57.3752   59.2310 C   0  0  0  0  0  0  0  0  0  0  0  0
  -46.7821   55.3709   56.3930 O   0  0  0  0  0  0  0  0  0  0  0  0
  -48.0176   55.0362   58.7268 O   0  0  0  0  0  0  0  0  0  0  0  0
  -46.3487   55.4435   55.5654 H   0  0  0  0  0  0  0  0  0  0  0  0
  -47.8568   54.3169   58.1482 H   0  0  0  0  0  0  0  0  0  0  0  0
 12 13  1  0  0  0
  9 10  2  0  0  0
  9  8  1  0  0  0
  6  7  2  0  0  0
  6  8  1  0  0  0
 10 11  1  0  0  0
  7  5  1  0  0  0
 16 17  2  0  0  0
 16 18  1  0  0  0
 17 19  1  0  0  0
 18 21  2  0  0  0
 13 11  1  0  0  0
  5  4  1  0  0  0
  4  3  1  0  0  0
  3  2  1  0  0  0
  2  1  1  0  0  0
  1 14  1  0  0  0
 14 15  1  0  0  0
 15 21  1  0  0  0
 19 20  2  0  0  0
 19 22  1  0  0  0
 20 21  1  0  0  0
 20 23  1  0  0  0
 22 24  1  0  0  0
 23 25  1  0  0  0
M  END
> <minimizedAffinity>
-7.99759

> <CNNscore>
0.4061945379

> <CNNaffinity>
6.8680510521

> <CNN_VS>
2.7897648811

> <CNNaffinity_variance>
0.0652641430

$$$$
/media/chris/experiments/cd1a-new-docking/inputs/ligands/5j1a_ligand.pdb


 25 25  0  0  0  0  0  0  0  0999 V2000
  -50.9381   59.4544   62.9923 C   0  0  0  0  0  0  0  0  0  0  0  0
  -50.3967   58.1439   62.4019 C   0  0  0  0  0  0  0  0  0  0  0  0
  -50.6059   58.1148   60.8941 C   0  0  0  0  0  0  0  0  0  0  0  0
  -50.1261   56.7725   60.3408 C   0  0  0  0  0  0  0  0  0  0  0  0
  -48.6070   56.7852   60.1715 C   0  0  0  0  0  0  0  0  0  0  0  0
  -48.0768   55.8595   57.7347 C   0  0  0  0  0  0  0  0  0  0  0  0
  -48.2296   55.6238   59.2502 C   0  0  0  0  0  0  0  0  0  0  0  0
  -48.4109   57.2088   57.0804 C   0  0  0  0  0  0  0  0  0  0  0  0
  -47.0875   57.9675   56.9038 C   0  0  0  0  0  0  0  0  0  0  0  0
  -46.7754   59.2637   57.6894 C   0  0  0  0  0  0  0  0  0  0  0  0
  -47.7619   59.8462   58.7205 C   0  0  0  0  0  0  0  0  0  0  0  0
  -47.5998   61.2135   60.8495 C   0  0  0  0  0  0  0  0  0  0  0  0
  -46.9803   60.0867   60.0193 C   0  0  0  0  0  0  0  0  0  0  0  0
  -50.1359   59.9506   64.2233 C   0  0  0  0  0  0  0  0  0  0  0  0
  -50.2841   59.0297   65.4575 C   0  0  0  0  0  0  0  0  0  0  0  0
  -47.5847   56.5089   65.7957 C   0  0  0  0  0  0  0  0  0  0  0  0
  -46.7114   57.1308   66.6977 C   0  0  0  0  0  0  0  0  0  0  0  0
  -48.7646   57.1488   65.3978 C   0  0  0  0  0  0  0  0  0  0  0  0
  -47.0393   58.3960   67.1848 C   0  0  0  0  0  0  0  0  0  0  0  0
  -48.2119   59.0308   66.7783 C   0  0  0  0  0  0  0  0  0  0  0  0
  -49.0811   58.4321   65.8575 C   0  0  0  0  0  0  0  0  0  0  0  0
  -46.2498   59.0634   68.0615 O   0  0  0  0  0  0  0  0  0  0  0  0
  -48.4876   60.2714   67.2752 O   0  0  0  0  0  0  0  0  0  0  0  0
  -45.4518   58.6755   68.3625 H   0  0  0  0  0  0  0  0  0  0  0  0
  -47.9044   60.6696   67.8910 H   0  0  0  0  0  0  0  0  0  0  0  0
 12 13  1  0  0  0
  9 10  2  0  0  0
  9  8  1  0  0  0
  6  7  2  0  0  0
  6  8  1  0  0  0
 10 11  1  0  0  0
  7  5  1  0  0  0
 16 17  2  0  0  0
 16 18  1  0  0  0
 17 19  1  0  0  0
 18 21  2  0  0  0
 13 11  1  0  0  0
  5  4  1  0  0  0
  4  3  1  0  0  0
  3  2  1  0  0  0
  2  1  1  0  0  0
  1 14  1  0  0  0
 14 15  1  0  0  0
 15 21  1  0  0  0
 19 20  2  0  0  0
 19 22  1  0  0  0
 20 21  1  0  0  0
 20 23  1  0  0  0
 22 24  1  0  0  0
 23 25  1  0  0  0
M  END
> <minimizedAffinity>
-8.43398

> <CNNscore>
0.3798078895

> <CNNaffinity>
6.3183674812

> <CNN_VS>
2.3997657299

> <CNNaffinity_variance>
0.2436252087

$$$$
/media/chris/experiments/cd1a-new-docking/inputs/ligands/5j1a_ligand.pdb


 25 25  0  0  0  0  0  0  0  0999 V2000
  -42.1484   60.9959   63.3216 C   0  0  0  0  0  0  0  0  0  0  0  0
  -43.0848   62.1743   63.0154 C   0  0  0  0  0  0  0  0  0  0  0  0
  -43.9343   61.8722   61.7886 C   0  0  0  0  0  0  0  0  0  0  0  0
  -45.2777   62.5921   61.9115 C   0  0  0  0  0  0  0  0  0  0  0  0
  -46.3773   61.7748   61.2336 C   0  0  0  0  0  0  0  0  0  0  0  0
  -46.3142   59.3977   60.0413 C   0  0  0  0  0  0  0  0  0  0  0  0
  -45.9326   60.3112   61.2225 C   0  0  0  0  0  0  0  0  0  0  0  0
  -47.2413   59.8695   58.9106 C   0  0  0  0  0  0  0  0  0  0  0  0
  -47.3934   58.6976   57.9298 C   0  0  0  0  0  0  0  0  0  0  0  0
  -48.6955   57.8659   57.8432 C   0  0  0  0  0  0  0  0  0  0  0  0
  -49.9262   58.1905   58.7123 C   0  0  0  0  0  0  0  0  0  0  0  0
  -50.2814   58.0830   61.2205 C   0  0  0  0  0  0  0  0  0  0  0  0
  -49.8439   57.3155   59.9706 C   0  0  0  0  0  0  0  0  0  0  0  0
  -41.8171   60.1352   62.0750 C   0  0  0  0  0  0  0  0  0  0  0  0
  -40.3823   60.3623   61.5428 C   0  0  0  0  0  0  0  0  0  0  0  0
  -39.3388   56.8573   62.1611 C   0  0  0  0  0  0  0  0  0  0  0  0
  -38.0074   56.8644   61.7246 C   0  0  0  0  0  0  0  0  0  0  0  0
  -40.1103   58.0238   62.0976 C   0  0  0  0  0  0  0  0  0  0  0  0
  -37.4717   58.0513   61.2247 C   0  0  0  0  0  0  0  0  0  0  0  0
  -38.2480   59.2071   61.1569 C   0  0  0  0  0  0  0  0  0  0  0  0
  -39.5878   59.2079   61.5655 C   0  0  0  0  0  0  0  0  0  0  0  0
  -36.1926   58.1419   60.7851 O   0  0  0  0  0  0  0  0  0  0  0  0
  -37.6839   60.3428   60.6533 O   0  0  0  0  0  0  0  0  0  0  0  0
  -35.6338   57.3903   60.8116 H   0  0  0  0  0  0  0  0  0  0  0  0
  -36.7875   60.3395   60.3807 H   0  0  0  0  0  0  0  0  0  0  0  0
 12 13  1  0  0  0
  9 10  2  0  0  0
  9  8  1  0  0  0
  6  7  2  0  0  0
  6  8  1  0  0  0
 10 11  1  0  0  0
  7  5  1  0  0  0
 16 17  2  0  0  0
 16 18  1  0  0  0
 17 19  1  0  0  0
 18 21  2  0  0  0
 13 11  1  0  0  0
  5  4  1  0  0  0
  4  3  1  0  0  0
  3  2  1  0  0  0
  2  1  1  0  0  0
  1 14  1  0  0  0
 14 15  1  0  0  0
 15 21  1  0  0  0
 19 20  2  0  0  0
 19 22  1  0  0  0
 20 21  1  0  0  0
 20 23  1  0  0  0
 22 24  1  0  0  0
 23 25  1  0  0  0
M  END
> <minimizedAffinity>
-8.03398

> <CNNscore>
0.3588777483

> <CNNaffinity>
5.9484534264

> <CNN_VS>
2.1347675323

> <CNNaffinity_variance>
0.0539380014

$$$$
/media/chris/experiments/cd1a-new-docking/inputs/ligands/5j1a_ligand.pdb


 25 25  0  0  0  0  0  0  0  0999 V2000
  -50.4267   59.2912   64.5565 C   0  0  0  0  0  0  0  0  0  0  0  0
  -50.0355   58.3226   63.4305 C   0  0  0  0  0  0  0  0  0  0  0  0
  -50.5174   58.8496   62.0858 C   0  0  0  0  0  0  0  0  0  0  0  0
  -50.4922   57.7176   61.0583 C   0  0  0  0  0  0  0  0  0  0  0  0
  -49.1020   57.0842   61.0064 C   0  0  0  0  0  0  0  0  0  0  0  0
  -47.7409   56.0856   58.9506 C   0  0  0  0  0  0  0  0  0  0  0  0
  -49.0430   56.1868   59.7689 C   0  0  0  0  0  0  0  0  0  0  0  0
  -46.5127   56.9556   59.2594 C   0  0  0  0  0  0  0  0  0  0  0  0
  -46.2474   57.8223   58.0196 C   0  0  0  0  0  0  0  0  0  0  0  0
  -46.9972   59.1538   57.7756 C   0  0  0  0  0  0  0  0  0  0  0  0
  -48.0271   59.7026   58.7823 C   0  0  0  0  0  0  0  0  0  0  0  0
  -46.5112   60.4481   60.6731 C   0  0  0  0  0  0  0  0  0  0  0  0
  -47.3803   60.8975   59.4961 C   0  0  0  0  0  0  0  0  0  0  0  0
  -49.7794   58.9395   65.9211 C   0  0  0  0  0  0  0  0  0  0  0  0
  -48.9294   60.0920   66.5064 C   0  0  0  0  0  0  0  0  0  0  0  0
  -46.1729   60.9619   64.1825 C   0  0  0  0  0  0  0  0  0  0  0  0
  -45.0825   60.2936   64.7547 C   0  0  0  0  0  0  0  0  0  0  0  0
  -47.4402   60.8825   64.7722 C   0  0  0  0  0  0  0  0  0  0  0  0
  -45.2850   59.5549   65.9203 C   0  0  0  0  0  0  0  0  0  0  0  0
  -46.5478   59.4865   66.5067 C   0  0  0  0  0  0  0  0  0  0  0  0
  -47.6411   60.1705   65.9601 C   0  0  0  0  0  0  0  0  0  0  0  0
  -44.2836   58.8781   66.5341 O   0  0  0  0  0  0  0  0  0  0  0  0
  -46.6969   58.7582   67.6508 O   0  0  0  0  0  0  0  0  0  0  0  0
  -43.4181   58.8956   66.1757 H   0  0  0  0  0  0  0  0  0  0  0  0
  -45.9639   58.3016   68.0144 H   0  0  0  0  0  0  0  0  0  0  0  0
 12 13  1  0  0  0
  9 10  2  0  0  0
  9  8  1  0  0  0
  6  7  2  0  0  0
  6  8  1  0  0  0
 10 11  1  0  0  0
  7  5  1  0  0  0
 16 17  2  0  0  0
 16 18  1  0  0  0
 17 19  1  0  0  0
 18 21  2  0  0  0
 13 11  1  0  0  0
  5  4  1  0  0  0
  4  3  1  0  0  0
  3  2  1  0  0  0
  2  1  1  0  0  0
  1 14  1  0  0  0
 14 15  1  0  0  0
 15 21  1  0  0  0
 19 20  2  0  0  0
 19 22  1  0  0  0
 20 21  1  0  0  0
 20 23  1  0  0  0
 22 24  1  0  0  0
 23 25  1  0  0  0
M  END
> <minimizedAffinity>
-8.08356

> <CNNscore>
0.3483982086

> <CNNaffinity>
6.1932225227

> <CNN_VS>
2.1577076912

> <CNNaffinity_variance>
0.1944766492

$$$$
/media/chris/experiments/cd1a-new-docking/inputs/ligands/5j1a_ligand.pdb


 25 25  0  0  0  0  0  0  0  0999 V2000
  -48.1688   58.7633   63.8321 C   0  0  0  0  0  0  0  0  0  0  0  0
  -49.6443   58.3410   63.8955 C   0  0  0  0  0  0  0  0  0  0  0  0
  -50.2447   58.2982   62.4971 C   0  0  0  0  0  0  0  0  0  0  0  0
  -49.3307   57.4885   61.5767 C   0  0  0  0  0  0  0  0  0  0  0  0
  -50.1319   56.9208   60.4053 C   0  0  0  0  0  0  0  0  0  0  0  0
  -49.4211   57.9093   58.0402 C   0  0  0  0  0  0  0  0  0  0  0  0
  -50.2417   58.0137   59.3406 C   0  0  0  0  0  0  0  0  0  0  0  0
  -48.3869   56.7957   57.8145 C   0  0  0  0  0  0  0  0  0  0  0  0
  -47.0940   57.4684   57.3305 C   0  0  0  0  0  0  0  0  0  0  0  0
  -45.9875   57.9189   58.3141 C   0  0  0  0  0  0  0  0  0  0  0  0
  -46.1059   57.6847   59.8328 C   0  0  0  0  0  0  0  0  0  0  0  0
  -47.0442   60.0285   60.0661 C   0  0  0  0  0  0  0  0  0  0  0  0
  -45.9599   59.0488   60.5209 C   0  0  0  0  0  0  0  0  0  0  0  0
  -47.9527   60.2783   64.0825 C   0  0  0  0  0  0  0  0  0  0  0  0
  -46.5751   60.6011   64.7081 C   0  0  0  0  0  0  0  0  0  0  0  0
  -45.1175   62.6415   61.9753 C   0  0  0  0  0  0  0  0  0  0  0  0
  -43.8409   62.0809   61.8371 C   0  0  0  0  0  0  0  0  0  0  0  0
  -46.0119   62.1383   62.9276 C   0  0  0  0  0  0  0  0  0  0  0  0
  -43.4812   61.0190   62.6668 C   0  0  0  0  0  0  0  0  0  0  0  0
  -44.3737   60.5280   63.6183 C   0  0  0  0  0  0  0  0  0  0  0  0
  -45.6434   61.0956   63.7852 C   0  0  0  0  0  0  0  0  0  0  0  0
  -42.2672   60.4203   62.5945 O   0  0  0  0  0  0  0  0  0  0  0  0
  -43.9753   59.4931   64.4132 O   0  0  0  0  0  0  0  0  0  0  0  0
  -41.6350   60.7170   61.9699 H   0  0  0  0  0  0  0  0  0  0  0  0
  -43.1255   59.1153   64.2995 H   0  0  0  0  0  0  0  0  0  0  0  0
 12 13  1  0  0  0
  9 10  2  0  0  0
  9  8  1  0  0  0
  6  7  2  0  0  0
  6  8  1  0  0  0
 10 11  1  0  0  0
  7  5  1  0  0  0
 16 17  2  0  0  0
 16 18  1  0  0  0
 17 19  1  0  0  0
 18 21  2  0  0  0
 13 11  1  0  0  0
  5  4  1  0  0  0
  4  3  1  0  0  0
  3  2  1  0  0  0
  2  1  1  0  0  0
  1 14  1  0  0  0
 14 15  1  0  0  0
 15 21  1  0  0  0
 19 20  2  0  0  0
 19 22  1  0  0  0
 20 21  1  0  0  0
 20 23  1  0  0  0
 22 24  1  0  0  0
 23 25  1  0  0  0
M  END
> <minimizedAffinity>
-7.57813

> <CNNscore>
0.3327104449

> <CNNaffinity>
6.1297264099

> <CNN_VS>
2.0394239426

> <CNNaffinity_variance>
0.1368661821

$$$$
