/media/chris/experiments/cd1a-new-docking/inputs/ligands/5j1a_ligand.pdb


 25 25  0  0  0  0  0  0  0  0999 V2000
  -48.4109   58.6222   65.8291 C   0  0  0  0  0  0  0  0  0  0  0  0
  -49.9138   58.9105   65.9606 C   0  0  0  0  0  0  0  0  0  0  0  0
  -50.4530   59.5148   64.6714 C   0  0  0  0  0  0  0  0  0  0  0  0
  -49.9864   58.6740   63.4826 C   0  0  0  0  0  0  0  0  0  0  0  0
  -50.7761   59.0502   62.2290 C   0  0  0  0  0  0  0  0  0  0  0  0
  -49.5024   58.9508   59.8958 C   0  0  0  0  0  0  0  0  0  0  0  0
  -49.7980   59.6674   61.2280 C   0  0  0  0  0  0  0  0  0  0  0  0
  -50.0658   57.5578   59.5755 C   0  0  0  0  0  0  0  0  0  0  0  0
  -48.9449   56.5427   59.8424 C   0  0  0  0  0  0  0  0  0  0  0  0
  -47.9848   56.0700   58.7246 C   0  0  0  0  0  0  0  0  0  0  0  0
  -48.0779   56.6196   57.2876 C   0  0  0  0  0  0  0  0  0  0  0  0
  -46.3026   58.2844   57.9983 C   0  0  0  0  0  0  0  0  0  0  0  0
  -46.7212   57.2521   56.9487 C   0  0  0  0  0  0  0  0  0  0  0  0
  -47.5169   59.8076   66.2770 C   0  0  0  0  0  0  0  0  0  0  0  0
  -46.0885   59.7496   65.6858 C   0  0  0  0  0  0  0  0  0  0  0  0
  -46.6669   61.1435   62.2980 C   0  0  0  0  0  0  0  0  0  0  0  0
  -46.1008   60.1615   61.4741 C   0  0  0  0  0  0  0  0  0  0  0  0
  -46.6578   60.9907   63.6895 C   0  0  0  0  0  0  0  0  0  0  0  0
  -45.5280   59.0368   62.0676 C   0  0  0  0  0  0  0  0  0  0  0  0
  -45.5155   58.8948   63.4542 C   0  0  0  0  0  0  0  0  0  0  0  0
  -46.0544   59.8806   64.2908 C   0  0  0  0  0  0  0  0  0  0  0  0
  -44.9626   58.0414   61.3416 O   0  0  0  0  0  0  0  0  0  0  0  0
  -44.9373   57.7814   63.9905 O   0  0  0  0  0  0  0  0  0  0  0  0
  -44.9480   58.0940   60.4062 H   0  0  0  0  0  0  0  0  0  0  0  0
  -44.5774   57.1235   63.4287 H   0  0  0  0  0  0  0  0  0  0  0  0
 12 13  1  0  0  0
  9 10  2  0  0  0
  9  8  1  0  0  0
  6  7  2  0  0  0
  6  8  1  0  0  0
 10 11  1  0  0  0
  7  5  1  0  0  0
 16 17  2  0  0  0
 16 18  1  0  0  0
 17 19  1  0  0  0
 18 21  2  0  0  0
 13 11  1  0  0  0
  5  4  1  0  0  0
  4  3  1  0  0  0
  3  2  1  0  0  0
  2  1  1  0  0  0
  1 14  1  0  0  0
 14 15  1  0  0  0
 15 21  1  0  0  0
 19 20  2  0  0  0
 19 22  1  0  0  0
 20 21  1  0  0  0
 20 23  1  0  0  0
 22 24  1  0  0  0
 23 25  1  0  0  0
M  END
> <minimizedAffinity>
-7.32913

> <CNNscore>
0.5763556957

> <CNNaffinity>
6.5887160301

> <CNN_VS>
3.7974441051

> <CNNaffinity_variance>
0.2640141845

$$$$
/media/chris/experiments/cd1a-new-docking/inputs/ligands/5j1a_ligand.pdb


 25 25  0  0  0  0  0  0  0  0999 V2000
  -48.9283   57.1457   58.4035 C   0  0  0  0  0  0  0  0  0  0  0  0
  -50.1524   57.9345   58.8919 C   0  0  0  0  0  0  0  0  0  0  0  0
  -50.4224   57.6392   60.3610 C   0  0  0  0  0  0  0  0  0  0  0  0
  -49.8513   58.7685   61.2191 C   0  0  0  0  0  0  0  0  0  0  0  0
  -49.1194   58.1912   62.4305 C   0  0  0  0  0  0  0  0  0  0  0  0
  -49.6153   59.4640   64.7130 C   0  0  0  0  0  0  0  0  0  0  0  0
  -50.0044   58.4090   63.6590 C   0  0  0  0  0  0  0  0  0  0  0  0
  -48.2894   60.2372   64.6436 C   0  0  0  0  0  0  0  0  0  0  0  0
  -47.7251   60.2991   66.0705 C   0  0  0  0  0  0  0  0  0  0  0  0
  -46.6315   59.3207   66.5618 C   0  0  0  0  0  0  0  0  0  0  0  0
  -46.0217   58.2515   65.6341 C   0  0  0  0  0  0  0  0  0  0  0  0
  -47.7767   56.4657   66.0331 C   0  0  0  0  0  0  0  0  0  0  0  0
  -46.3201   56.8801   66.2550 C   0  0  0  0  0  0  0  0  0  0  0  0
  -48.0202   57.9553   57.4418 C   0  0  0  0  0  0  0  0  0  0  0  0
  -46.6405   58.2979   58.0521 C   0  0  0  0  0  0  0  0  0  0  0  0
  -47.4924   61.3386   59.9971 C   0  0  0  0  0  0  0  0  0  0  0  0
  -46.8153   61.1166   61.2036 C   0  0  0  0  0  0  0  0  0  0  0  0
  -47.4218   60.3979   58.9628 C   0  0  0  0  0  0  0  0  0  0  0  0
  -46.0768   59.9427   61.3521 C   0  0  0  0  0  0  0  0  0  0  0  0
  -46.0172   59.0066   60.3210 C   0  0  0  0  0  0  0  0  0  0  0  0
  -46.7100   59.2034   59.1196 C   0  0  0  0  0  0  0  0  0  0  0  0
  -45.3919   59.6545   62.4859 O   0  0  0  0  0  0  0  0  0  0  0  0
  -45.2886   57.8693   60.5142 O   0  0  0  0  0  0  0  0  0  0  0  0
  -45.4032   60.2546   63.2054 H   0  0  0  0  0  0  0  0  0  0  0  0
  -44.8262   57.7401   61.3189 H   0  0  0  0  0  0  0  0  0  0  0  0
 12 13  1  0  0  0
  9 10  2  0  0  0
  9  8  1  0  0  0
  6  7  2  0  0  0
  6  8  1  0  0  0
 10 11  1  0  0  0
  7  5  1  0  0  0
 16 17  2  0  0  0
 16 18  1  0  0  0
 17 19  1  0  0  0
 18 21  2  0  0  0
 13 11  1  0  0  0
  5  4  1  0  0  0
  4  3  1  0  0  0
  3  2  1  0  0  0
  2  1  1  0  0  0
  1 14  1  0  0  0
 14 15  1  0  0  0
 15 21  1  0  0  0
 19 20  2  0  0  0
 19 22  1  0  0  0
 20 21  1  0  0  0
 20 23  1  0  0  0
 22 24  1  0  0  0
 23 25  1  0  0  0
M  END
> <minimizedAffinity>
-7.43351

> <CNNscore>
0.4772629738

> <CNNaffinity>
6.5503273010

> <CNN_VS>
3.1262285709

> <CNNaffinity_variance>
0.1924025416

$$$$
/media/chris/experiments/cd1a-new-docking/inputs/ligands/5j1a_ligand.pdb


 25 25  0  0  0  0  0  0  0  0999 V2000
  -48.7623   60.7868   60.9488 C   0  0  0  0  0  0  0  0  0  0  0  0
  -47.4194   61.3059   60.4138 C   0  0  0  0  0  0  0  0  0  0  0  0
  -46.6466   62.0146   61.5177 C   0  0  0  0  0  0  0  0  0  0  0  0
  -45.8999   60.9795   62.3597 C   0  0  0  0  0  0  0  0  0  0  0  0
  -46.4924   60.9192   63.7675 C   0  0  0  0  0  0  0  0  0  0  0  0
  -45.8735   59.6660   66.0308 C   0  0  0  0  0  0  0  0  0  0  0  0
  -45.4450   60.2918   64.6890 C   0  0  0  0  0  0  0  0  0  0  0  0
  -47.3175   59.7533   66.5483 C   0  0  0  0  0  0  0  0  0  0  0  0
  -47.8503   58.3166   66.6508 C   0  0  0  0  0  0  0  0  0  0  0  0
  -48.8517   57.7392   65.6221 C   0  0  0  0  0  0  0  0  0  0  0  0
  -49.3431   58.5633   64.4158 C   0  0  0  0  0  0  0  0  0  0  0  0
  -51.1777   60.1704   63.7232 C   0  0  0  0  0  0  0  0  0  0  0  0
  -50.6072   59.3139   64.8562 C   0  0  0  0  0  0  0  0  0  0  0  0
  -48.9751   59.2701   60.7050 C   0  0  0  0  0  0  0  0  0  0  0  0
  -49.3973   58.9406   59.2535 C   0  0  0  0  0  0  0  0  0  0  0  0
  -46.5127   58.3274   57.0045 C   0  0  0  0  0  0  0  0  0  0  0  0
  -46.4613   56.9277   56.9653 C   0  0  0  0  0  0  0  0  0  0  0  0
  -47.4924   58.9784   57.7636 C   0  0  0  0  0  0  0  0  0  0  0  0
  -47.3998   56.2013   57.6981 C   0  0  0  0  0  0  0  0  0  0  0  0
  -48.3677   56.8559   58.4581 C   0  0  0  0  0  0  0  0  0  0  0  0
  -48.4148   58.2542   58.5271 C   0  0  0  0  0  0  0  0  0  0  0  0
  -47.4195   54.8459   57.7110 O   0  0  0  0  0  0  0  0  0  0  0  0
  -49.2604   56.1040   59.1648 O   0  0  0  0  0  0  0  0  0  0  0  0
  -46.7879   54.3634   57.2149 H   0  0  0  0  0  0  0  0  0  0  0  0
  -49.2267   55.1688   59.1170 H   0  0  0  0  0  0  0  0  0  0  0  0
 12 13  1  0  0  0
  9 10  2  0  0  0
  9  8  1  0  0  0
  6  7  2  0  0  0
  6  8  1  0  0  0
 10 11  1  0  0  0
  7  5  1  0  0  0
 16 17  2  0  0  0
 16 18  1  0  0  0
 17 19  1  0  0  0
 18 21  2  0  0  0
 13 11  1  0  0  0
  5  4  1  0  0  0
  4  3  1  0  0  0
  3  2  1  0  0  0
  2  1  1  0  0  0
  1 14  1  0  0  0
 14 15  1  0  0  0
 15 21  1  0  0  0
 19 20  2  0  0  0
 19 22  1  0  0  0
 20 21  1  0  0  0
 20 23  1  0  0  0
 22 24  1  0  0  0
 23 25  1  0  0  0
M  END
> <minimizedAffinity>
-7.71068

> <CNNscore>
0.4732887745

> <CNNaffinity>
6.8280210495

> <CNN_VS>
3.2316257954

> <CNNaffinity_variance>
0.1882401258

$$$$
/media/chris/experiments/cd1a-new-docking/inputs/ligands/5j1a_ligand.pdb


 25 25  0  0  0  0  0  0  0  0999 V2000
  -50.3779   58.1422   61.9835 C   0  0  0  0  0  0  0  0  0  0  0  0
  -50.9909   59.5017   62.3512 C   0  0  0  0  0  0  0  0  0  0  0  0
  -50.2658   60.1049   63.5463 C   0  0  0  0  0  0  0  0  0  0  0  0
  -51.1702   60.0347   64.7773 C   0  0  0  0  0  0  0  0  0  0  0  0
  -50.3612   59.6064   66.0015 C   0  0  0  0  0  0  0  0  0  0  0  0
  -48.5950   57.6571   65.6054 C   0  0  0  0  0  0  0  0  0  0  0  0
  -50.0447   58.1170   65.8551 C   0  0  0  0  0  0  0  0  0  0  0  0
  -47.4504   58.6553   65.3729 C   0  0  0  0  0  0  0  0  0  0  0  0
  -46.7769   58.2724   64.0470 C   0  0  0  0  0  0  0  0  0  0  0  0
  -46.4066   59.3312   62.9809 C   0  0  0  0  0  0  0  0  0  0  0  0
  -46.6611   60.8345   63.2062 C   0  0  0  0  0  0  0  0  0  0  0  0
  -47.6583   61.2728   60.9167 C   0  0  0  0  0  0  0  0  0  0  0  0
  -46.4787   61.5391   61.8550 C   0  0  0  0  0  0  0  0  0  0  0  0
  -49.6642   58.1429   60.6067 C   0  0  0  0  0  0  0  0  0  0  0  0
  -48.2281   57.5707   60.6657 C   0  0  0  0  0  0  0  0  0  0  0  0
  -46.3075   58.4289   57.6113 C   0  0  0  0  0  0  0  0  0  0  0  0
  -46.4601   57.2741   56.8324 C   0  0  0  0  0  0  0  0  0  0  0  0
  -46.9016   58.5128   58.8761 C   0  0  0  0  0  0  0  0  0  0  0  0
  -47.2094   56.2146   57.3436 C   0  0  0  0  0  0  0  0  0  0  0  0
  -47.7917   56.3017   58.6070 C   0  0  0  0  0  0  0  0  0  0  0  0
  -47.6258   57.4395   59.4070 C   0  0  0  0  0  0  0  0  0  0  0  0
  -47.4064   55.0650   56.6527 O   0  0  0  0  0  0  0  0  0  0  0  0
  -48.5095   55.2373   59.0690 O   0  0  0  0  0  0  0  0  0  0  0  0
  -47.0339   54.9617   55.7992 H   0  0  0  0  0  0  0  0  0  0  0  0
  -48.6190   54.4774   58.5319 H   0  0  0  0  0  0  0  0  0  0  0  0
 12 13  1  0  0  0
  9 10  2  0  0  0
  9  8  1  0  0  0
  6  7  2  0  0  0
  6  8  1  0  0  0
 10 11  1  0  0  0
  7  5  1  0  0  0
 16 17  2  0  0  0
 16 18  1  0  0  0
 17 19  1  0  0  0
 18 21  2  0  0  0
 13 11  1  0  0  0
  5  4  1  0  0  0
  4  3  1  0  0  0
  3  2  1  0  0  0
  2  1  1  0  0  0
  1 14  1  0  0  0
 14 15  1  0  0  0
 15 21  1  0  0  0
 19 20  2  0  0  0
 19 22  1  0  0  0
 20 21  1  0  0  0
 20 23  1  0  0  0
 22 24  1  0  0  0
 23 25  1  0  0  0
M  END
> <minimizedAffinity>
-7.91110

> <CNNscore>
0.4382520020

> <CNNaffinity>
6.8130769730

> <CNN_VS>
2.9858446121

> <CNNaffinity_variance>
0.0816342160

$$$$
/media/chris/experiments/cd1a-new-docking/inputs/ligands/5j1a_ligand.pdb


 25 25  0  0  0  0  0  0  0  0999 V2000
  -46.2848   58.0941   57.9967 C   0  0  0  0  0  0  0  0  0  0  0  0
  -46.9538   56.9781   57.1807 C   0  0  0  0  0  0  0  0  0  0  0  0
  -48.4336   56.8823   57.5260 C   0  0  0  0  0  0  0  0  0  0  0  0
  -48.9144   58.2253   58.0764 C   0  0  0  0  0  0  0  0  0  0  0  0
  -50.2316   58.0443   58.8308 C   0  0  0  0  0  0  0  0  0  0  0  0
  -50.0652   57.6872   61.4615 C   0  0  0  0  0  0  0  0  0  0  0  0
  -49.9630   57.1307   60.0278 C   0  0  0  0  0  0  0  0  0  0  0  0
  -50.3120   59.1772   61.7433 C   0  0  0  0  0  0  0  0  0  0  0  0
  -50.7085   59.2997   63.2219 C   0  0  0  0  0  0  0  0  0  0  0  0
  -49.6524   59.3422   64.3521 C   0  0  0  0  0  0  0  0  0  0  0  0
  -48.1408   59.2998   64.0536 C   0  0  0  0  0  0  0  0  0  0  0  0
  -46.1337   60.2964   65.2398 C   0  0  0  0  0  0  0  0  0  0  0  0
  -47.5190   60.5703   64.6492 C   0  0  0  0  0  0  0  0  0  0  0  0
  -45.5703   57.5776   59.2725 C   0  0  0  0  0  0  0  0  0  0  0  0
  -46.3160   57.9432   60.5777 C   0  0  0  0  0  0  0  0  0  0  0  0
  -46.9977   61.5721   60.9264 C   0  0  0  0  0  0  0  0  0  0  0  0
  -45.8590   62.0222   61.6078 C   0  0  0  0  0  0  0  0  0  0  0  0
  -47.1323   60.2199   60.5898 C   0  0  0  0  0  0  0  0  0  0  0  0
  -44.8701   61.0982   61.9447 C   0  0  0  0  0  0  0  0  0  0  0  0
  -45.0142   59.7519   61.6134 C   0  0  0  0  0  0  0  0  0  0  0  0
  -46.1587   59.2837   60.9554 C   0  0  0  0  0  0  0  0  0  0  0  0
  -43.7383   61.4531   62.6010 O   0  0  0  0  0  0  0  0  0  0  0  0
  -44.0245   58.8831   61.9701 O   0  0  0  0  0  0  0  0  0  0  0  0
  -43.5984   62.3472   62.8440 H   0  0  0  0  0  0  0  0  0  0  0  0
  -43.2599   59.1988   62.4102 H   0  0  0  0  0  0  0  0  0  0  0  0
 12 13  1  0  0  0
  9 10  2  0  0  0
  9  8  1  0  0  0
  6  7  2  0  0  0
  6  8  1  0  0  0
 10 11  1  0  0  0
  7  5  1  0  0  0
 16 17  2  0  0  0
 16 18  1  0  0  0
 17 19  1  0  0  0
 18 21  2  0  0  0
 13 11  1  0  0  0
  5  4  1  0  0  0
  4  3  1  0  0  0
  3  2  1  0  0  0
  2  1  1  0  0  0
  1 14  1  0  0  0
 14 15  1  0  0  0
 15 21  1  0  0  0
 19 20  2  0  0  0
 19 22  1  0  0  0
 20 21  1  0  0  0
 20 23  1  0  0  0
 22 24  1  0  0  0
 23 25  1  0  0  0
M  END
> <minimizedAffinity>
-7.57227

> <CNNscore>
0.4255185723

> <CNNaffinity>
6.4485273361

> <CNN_VS>
2.7439682484

> <CNNaffinity_variance>
0.0475629643

$$$$
/media/chris/experiments/cd1a-new-docking/inputs/ligands/5j1a_ligand.pdb


 25 25  0  0  0  0  0  0  0  0999 V2000
  -47.7183   61.0404   60.6410 C   0  0  0  0  0  0  0  0  0  0  0  0
  -48.3446   60.1538   61.7276 C   0  0  0  0  0  0  0  0  0  0  0  0
  -49.6372   59.5279   61.2221 C   0  0  0  0  0  0  0  0  0  0  0  0
  -50.8249   60.1567   61.9514 C   0  0  0  0  0  0  0  0  0  0  0  0
  -51.1778   59.3341   63.1905 C   0  0  0  0  0  0  0  0  0  0  0  0
  -50.2995   59.6956   65.6752 C   0  0  0  0  0  0  0  0  0  0  0  0
  -51.0037   60.2346   64.4146 C   0  0  0  0  0  0  0  0  0  0  0  0
  -49.8633   58.2279   65.8022 C   0  0  0  0  0  0  0  0  0  0  0  0
  -48.7581   57.9915   64.7625 C   0  0  0  0  0  0  0  0  0  0  0  0
  -47.5177   57.1189   65.0699 C   0  0  0  0  0  0  0  0  0  0  0  0
  -47.3399   56.4085   66.4262 C   0  0  0  0  0  0  0  0  0  0  0  0
  -46.3646   58.2950   67.8112 C   0  0  0  0  0  0  0  0  0  0  0  0
  -46.0759   56.9804   67.0824 C   0  0  0  0  0  0  0  0  0  0  0  0
  -47.8961   60.4737   59.2085 C   0  0  0  0  0  0  0  0  0  0  0  0
  -46.6783   59.6517   58.7239 C   0  0  0  0  0  0  0  0  0  0  0  0
  -47.8180   57.1244   56.2605 C   0  0  0  0  0  0  0  0  0  0  0  0
  -47.8237   55.9495   57.0240 C   0  0  0  0  0  0  0  0  0  0  0  0
  -47.4397   58.3420   56.8386 C   0  0  0  0  0  0  0  0  0  0  0  0
  -47.4427   56.0187   58.3640 C   0  0  0  0  0  0  0  0  0  0  0  0
  -47.0597   57.2330   58.9312 C   0  0  0  0  0  0  0  0  0  0  0  0
  -47.0244   58.4104   58.1731 C   0  0  0  0  0  0  0  0  0  0  0  0
  -47.4237   54.9292   59.1704 O   0  0  0  0  0  0  0  0  0  0  0  0
  -46.6876   57.2510   60.2437 O   0  0  0  0  0  0  0  0  0  0  0  0
  -47.6732   54.0917   58.8323 H   0  0  0  0  0  0  0  0  0  0  0  0
  -46.7120   56.4621   60.7486 H   0  0  0  0  0  0  0  0  0  0  0  0
 12 13  1  0  0  0
  9 10  2  0  0  0
  9  8  1  0  0  0
  6  7  2  0  0  0
  6  8  1  0  0  0
 10 11  1  0  0  0
  7  5  1  0  0  0
 16 17  2  0  0  0
 16 18  1  0  0  0
 17 19  1  0  0  0
 18 21  2  0  0  0
 13 11  1  0  0  0
  5  4  1  0  0  0
  4  3  1  0  0  0
  3  2  1  0  0  0
  2  1  1  0  0  0
  1 14  1  0  0  0
 14 15  1  0  0  0
 15 21  1  0  0  0
 19 20  2  0  0  0
 19 22  1  0  0  0
 20 21  1  0  0  0
 20 23  1  0  0  0
 22 24  1  0  0  0
 23 25  1  0  0  0
M  END
> <minimizedAffinity>
-7.99513

> <CNNscore>
0.3890482783

> <CNNaffinity>
6.5912933350

> <CNN_VS>
2.5643312931

> <CNNaffinity_variance>
0.1248790994

$$$$
/media/chris/experiments/cd1a-new-docking/inputs/ligands/5j1a_ligand.pdb


 25 25  0  0  0  0  0  0  0  0999 V2000
  -48.3057   59.2124   61.7728 C   0  0  0  0  0  0  0  0  0  0  0  0
  -48.9261   58.0361   62.5412 C   0  0  0  0  0  0  0  0  0  0  0  0
  -50.2294   58.4625   63.2027 C   0  0  0  0  0  0  0  0  0  0  0  0
  -50.0688   58.4089   64.7223 C   0  0  0  0  0  0  0  0  0  0  0  0
  -50.0474   59.8239   65.3001 C   0  0  0  0  0  0  0  0  0  0  0  0
  -47.6381   60.2826   66.3299 C   0  0  0  0  0  0  0  0  0  0  0  0
  -49.0997   59.8243   66.5007 C   0  0  0  0  0  0  0  0  0  0  0  0
  -47.0471   60.6315   64.9553 C   0  0  0  0  0  0  0  0  0  0  0  0
  -45.5344   60.3790   65.0344 C   0  0  0  0  0  0  0  0  0  0  0  0
  -44.9290   58.9670   64.8488 C   0  0  0  0  0  0  0  0  0  0  0  0
  -45.8089   57.7402   64.5384 C   0  0  0  0  0  0  0  0  0  0  0  0
  -47.2886   56.3926   66.0949 C   0  0  0  0  0  0  0  0  0  0  0  0
  -45.8669   56.8827   65.8099 C   0  0  0  0  0  0  0  0  0  0  0  0
  -49.2424   59.7963   60.6836 C   0  0  0  0  0  0  0  0  0  0  0  0
  -49.6245   58.7666   59.5940 C   0  0  0  0  0  0  0  0  0  0  0  0
  -46.5888   58.6213   57.4684 C   0  0  0  0  0  0  0  0  0  0  0  0
  -46.3272   57.2456   57.4209 C   0  0  0  0  0  0  0  0  0  0  0  0
  -47.6857   59.1085   58.1890 C   0  0  0  0  0  0  0  0  0  0  0  0
  -47.1766   56.3774   58.1065 C   0  0  0  0  0  0  0  0  0  0  0  0
  -48.2625   56.8698   58.8285 C   0  0  0  0  0  0  0  0  0  0  0  0
  -48.5208   58.2444   58.9060 C   0  0  0  0  0  0  0  0  0  0  0  0
  -46.9941   55.0341   58.1084 O   0  0  0  0  0  0  0  0  0  0  0  0
  -49.0617   55.9835   59.4900 O   0  0  0  0  0  0  0  0  0  0  0  0
  -46.2771   54.6581   57.6366 H   0  0  0  0  0  0  0  0  0  0  0  0
  -48.8867   55.0645   59.4366 H   0  0  0  0  0  0  0  0  0  0  0  0
 12 13  1  0  0  0
  9 10  2  0  0  0
  9  8  1  0  0  0
  6  7  2  0  0  0
  6  8  1  0  0  0
 10 11  1  0  0  0
  7  5  1  0  0  0
 16 17  2  0  0  0
 16 18  1  0  0  0
 17 19  1  0  0  0
 18 21  2  0  0  0
 13 11  1  0  0  0
  5  4  1  0  0  0
  4  3  1  0  0  0
  3  2  1  0  0  0
  2  1  1  0  0  0
  1 14  1  0  0  0
 14 15  1  0  0  0
 15 21  1  0  0  0
 19 20  2  0  0  0
 19 22  1  0  0  0
 20 21  1  0  0  0
 20 23  1  0  0  0
 22 24  1  0  0  0
 23 25  1  0  0  0
M  END
> <minimizedAffinity>
-7.69371

> <CNNscore>
0.3688184619

> <CNNaffinity>
6.5481004715

> <CNN_VS>
2.4150602818

> <CNNaffinity_variance>
0.1605700552

$$$$
/media/chris/experiments/cd1a-new-docking/inputs/ligands/5j1a_ligand.pdb


 25 25  0  0  0  0  0  0  0  0999 V2000
  -49.5100   58.1651   63.1395 C   0  0  0  0  0  0  0  0  0  0  0  0
  -50.3243   58.3468   61.8499 C   0  0  0  0  0  0  0  0  0  0  0  0
  -49.8251   57.3980   60.7688 C   0  0  0  0  0  0  0  0  0  0  0  0
  -50.3090   57.8854   59.4027 C   0  0  0  0  0  0  0  0  0  0  0  0
  -49.3026   57.4992   58.3189 C   0  0  0  0  0  0  0  0  0  0  0  0
  -47.1614   55.9945   58.7957 C   0  0  0  0  0  0  0  0  0  0  0  0
  -48.6921   56.1513   58.7066 C   0  0  0  0  0  0  0  0  0  0  0  0
  -46.2001   57.1213   58.3875 C   0  0  0  0  0  0  0  0  0  0  0  0
  -45.8279   57.8857   59.6663 C   0  0  0  0  0  0  0  0  0  0  0  0
  -46.3040   59.3357   59.9217 C   0  0  0  0  0  0  0  0  0  0  0  0
  -47.2091   60.0816   58.9216 C   0  0  0  0  0  0  0  0  0  0  0  0
  -47.8493   60.9082   61.2315 C   0  0  0  0  0  0  0  0  0  0  0  0
  -48.0621   61.0730   59.7247 C   0  0  0  0  0  0  0  0  0  0  0  0
  -50.0661   58.9792   64.3364 C   0  0  0  0  0  0  0  0  0  0  0  0
  -49.9956   58.2129   65.6786 C   0  0  0  0  0  0  0  0  0  0  0  0
  -46.8777   56.2523   66.1140 C   0  0  0  0  0  0  0  0  0  0  0  0
  -46.0940   57.1133   66.8936 C   0  0  0  0  0  0  0  0  0  0  0  0
  -48.1679   56.6294   65.7230 C   0  0  0  0  0  0  0  0  0  0  0  0
  -46.6231   58.3489   67.2662 C   0  0  0  0  0  0  0  0  0  0  0  0
  -47.9055   58.7213   66.8669 C   0  0  0  0  0  0  0  0  0  0  0  0
  -48.6901   57.8816   66.0659 C   0  0  0  0  0  0  0  0  0  0  0  0
  -45.9309   59.2371   68.0210 O   0  0  0  0  0  0  0  0  0  0  0  0
  -48.3785   59.9429   67.2487 O   0  0  0  0  0  0  0  0  0  0  0  0
  -45.0649   59.0296   68.3125 H   0  0  0  0  0  0  0  0  0  0  0  0
  -47.8517   60.5028   67.7844 H   0  0  0  0  0  0  0  0  0  0  0  0
 12 13  1  0  0  0
  9 10  2  0  0  0
  9  8  1  0  0  0
  6  7  2  0  0  0
  6  8  1  0  0  0
 10 11  1  0  0  0
  7  5  1  0  0  0
 16 17  2  0  0  0
 16 18  1  0  0  0
 17 19  1  0  0  0
 18 21  2  0  0  0
 13 11  1  0  0  0
  5  4  1  0  0  0
  4  3  1  0  0  0
  3  2  1  0  0  0
  2  1  1  0  0  0
  1 14  1  0  0  0
 14 15  1  0  0  0
 15 21  1  0  0  0
 19 20  2  0  0  0
 19 22  1  0  0  0
 20 21  1  0  0  0
 20 23  1  0  0  0
 22 24  1  0  0  0
 23 25  1  0  0  0
M  END
> <minimizedAffinity>
-8.37280

> <CNNscore>
0.3595168293

> <CNNaffinity>
6.2538065910

> <CNN_VS>
2.2483487129

> <CNNaffinity_variance>
0.2547412515

$$$$
/media/chris/experiments/cd1a-new-docking/inputs/ligands/5j1a_ligand.pdb


 25 25  0  0  0  0  0  0  0  0999 V2000
  -50.0554   58.3748   63.3937 C   0  0  0  0  0  0  0  0  0  0  0  0
  -49.0662   59.0954   62.4656 C   0  0  0  0  0  0  0  0  0  0  0  0
  -48.0274   59.8520   63.2821 C   0  0  0  0  0  0  0  0  0  0  0  0
  -46.6880   59.1187   63.2041 C   0  0  0  0  0  0  0  0  0  0  0  0
  -46.3250   58.8382   61.7460 C   0  0  0  0  0  0  0  0  0  0  0  0
  -46.7132   60.6095   59.7997 C   0  0  0  0  0  0  0  0  0  0  0  0
  -45.9816   60.1740   61.0845 C   0  0  0  0  0  0  0  0  0  0  0  0
  -47.7059   59.6888   59.0735 C   0  0  0  0  0  0  0  0  0  0  0  0
  -47.0664   59.2998   57.7326 C   0  0  0  0  0  0  0  0  0  0  0  0
  -46.3127   57.9618   57.5423 C   0  0  0  0  0  0  0  0  0  0  0  0
  -46.1927   56.9281   58.6792 C   0  0  0  0  0  0  0  0  0  0  0  0
  -47.4066   55.3616   57.0978 C   0  0  0  0  0  0  0  0  0  0  0  0
  -47.3479   55.9308   58.5174 C   0  0  0  0  0  0  0  0  0  0  0  0
  -50.2541   59.0916   64.7544 C   0  0  0  0  0  0  0  0  0  0  0  0
  -50.0273   58.1625   65.9704 C   0  0  0  0  0  0  0  0  0  0  0  0
  -46.8054   56.3309   66.1111 C   0  0  0  0  0  0  0  0  0  0  0  0
  -45.9777   57.2408   66.7821 C   0  0  0  0  0  0  0  0  0  0  0  0
  -48.1440   56.6494   65.8532 C   0  0  0  0  0  0  0  0  0  0  0  0
  -46.5124   58.4654   67.1817 C   0  0  0  0  0  0  0  0  0  0  0  0
  -47.8440   58.7793   66.9147 C   0  0  0  0  0  0  0  0  0  0  0  0
  -48.6757   57.8901   66.2221 C   0  0  0  0  0  0  0  0  0  0  0  0
  -45.7794   59.3984   67.8373 O   0  0  0  0  0  0  0  0  0  0  0  0
  -48.3214   59.9923   67.3177 O   0  0  0  0  0  0  0  0  0  0  0  0
  -44.8796   59.2309   68.0383 H   0  0  0  0  0  0  0  0  0  0  0  0
  -47.7630   60.5853   67.7807 H   0  0  0  0  0  0  0  0  0  0  0  0
 12 13  1  0  0  0
  9 10  2  0  0  0
  9  8  1  0  0  0
  6  7  2  0  0  0
  6  8  1  0  0  0
 10 11  1  0  0  0
  7  5  1  0  0  0
 16 17  2  0  0  0
 16 18  1  0  0  0
 17 19  1  0  0  0
 18 21  2  0  0  0
 13 11  1  0  0  0
  5  4  1  0  0  0
  4  3  1  0  0  0
  3  2  1  0  0  0
  2  1  1  0  0  0
  1 14  1  0  0  0
 14 15  1  0  0  0
 15 21  1  0  0  0
 19 20  2  0  0  0
 19 22  1  0  0  0
 20 21  1  0  0  0
 20 23  1  0  0  0
 22 24  1  0  0  0
 23 25  1  0  0  0
M  END
> <minimizedAffinity>
-7.87683

> <CNNscore>
0.3523583412

> <CNNaffinity>
6.3317928314

> <CNN_VS>
2.2310600281

> <CNNaffinity_variance>
0.0737896934

$$$$
