/media/chris/experiments/cd1a-new-docking/inputs/ligands/5j1a_ligand.pdb


 25 25  0  0  0  0  0  0  0  0999 V2000
  -45.9262   58.7223   60.2148 C   0  0  0  0  0  0  0  0  0  0  0  0
  -45.7228   57.6088   59.1766 C   0  0  0  0  0  0  0  0  0  0  0  0
  -46.3269   58.0136   57.8389 C   0  0  0  0  0  0  0  0  0  0  0  0
  -47.0350   56.8098   57.2166 C   0  0  0  0  0  0  0  0  0  0  0  0
  -48.3551   56.5433   57.9398 C   0  0  0  0  0  0  0  0  0  0  0  0
  -50.0589   58.1672   59.1794 C   0  0  0  0  0  0  0  0  0  0  0  0
  -49.1378   57.8569   57.9831 C   0  0  0  0  0  0  0  0  0  0  0  0
  -50.3232   57.1428   60.2936 C   0  0  0  0  0  0  0  0  0  0  0  0
  -49.3400   57.4482   61.4331 C   0  0  0  0  0  0  0  0  0  0  0  0
  -49.5288   58.6621   62.3743 C   0  0  0  0  0  0  0  0  0  0  0  0
  -50.7349   59.6124   62.2427 C   0  0  0  0  0  0  0  0  0  0  0  0
  -50.3755   59.2366   64.7242 C   0  0  0  0  0  0  0  0  0  0  0  0
  -51.1776   59.9927   63.6622 C   0  0  0  0  0  0  0  0  0  0  0  0
  -45.6617   58.2594   61.6711 C   0  0  0  0  0  0  0  0  0  0  0  0
  -45.9466   59.3599   62.7205 C   0  0  0  0  0  0  0  0  0  0  0  0
  -44.1878   62.5143   61.8770 C   0  0  0  0  0  0  0  0  0  0  0  0
  -43.0308   62.4262   62.6625 C   0  0  0  0  0  0  0  0  0  0  0  0
  -45.1415   61.4897   61.9048 C   0  0  0  0  0  0  0  0  0  0  0  0
  -42.8528   61.3036   63.4709 C   0  0  0  0  0  0  0  0  0  0  0  0
  -43.8101   60.2908   63.4997 C   0  0  0  0  0  0  0  0  0  0  0  0
  -44.9835   60.3778   62.7397 C   0  0  0  0  0  0  0  0  0  0  0  0
  -41.7609   61.1414   64.2577 O   0  0  0  0  0  0  0  0  0  0  0  0
  -43.5971   59.2151   64.3115 O   0  0  0  0  0  0  0  0  0  0  0  0
  -41.0912   61.7967   64.2707 H   0  0  0  0  0  0  0  0  0  0  0  0
  -42.8113   59.1594   64.8190 H   0  0  0  0  0  0  0  0  0  0  0  0
 12 13  1  0  0  0
  9 10  2  0  0  0
  9  8  1  0  0  0
  6  7  2  0  0  0
  6  8  1  0  0  0
 10 11  1  0  0  0
  7  5  1  0  0  0
 16 17  2  0  0  0
 16 18  1  0  0  0
 17 19  1  0  0  0
 18 21  2  0  0  0
 13 11  1  0  0  0
  5  4  1  0  0  0
  4  3  1  0  0  0
  3  2  1  0  0  0
  2  1  1  0  0  0
  1 14  1  0  0  0
 14 15  1  0  0  0
 15 21  1  0  0  0
 19 20  2  0  0  0
 19 22  1  0  0  0
 20 21  1  0  0  0
 20 23  1  0  0  0
 22 24  1  0  0  0
 23 25  1  0  0  0
M  END
> <minimizedAffinity>
-7.97386

> <CNNscore>
0.5524181724

> <CNNaffinity>
6.4382677078

> <CNN_VS>
3.5566160679

> <CNNaffinity_variance>
0.1271977872

$$$$
/media/chris/experiments/cd1a-new-docking/inputs/ligands/5j1a_ligand.pdb


 25 25  0  0  0  0  0  0  0  0999 V2000
  -48.9762   58.3026   65.8967 C   0  0  0  0  0  0  0  0  0  0  0  0
  -50.1802   59.0611   65.3185 C   0  0  0  0  0  0  0  0  0  0  0  0
  -50.3633   58.7222   63.8454 C   0  0  0  0  0  0  0  0  0  0  0  0
  -49.1523   59.2201   63.0557 C   0  0  0  0  0  0  0  0  0  0  0  0
  -48.6907   58.1487   62.0680 C   0  0  0  0  0  0  0  0  0  0  0  0
  -50.3112   57.5706   60.0391 C   0  0  0  0  0  0  0  0  0  0  0  0
  -49.9358   57.4426   61.5286 C   0  0  0  0  0  0  0  0  0  0  0  0
  -49.5421   58.4916   59.0795 C   0  0  0  0  0  0  0  0  0  0  0  0
  -49.2761   57.6900   57.7969 C   0  0  0  0  0  0  0  0  0  0  0  0
  -47.9155   57.7488   57.0618 C   0  0  0  0  0  0  0  0  0  0  0  0
  -46.7387   58.5883   57.5965 C   0  0  0  0  0  0  0  0  0  0  0  0
  -45.8647   58.1690   59.9393 C   0  0  0  0  0  0  0  0  0  0  0  0
  -45.8910   57.6737   58.4913 C   0  0  0  0  0  0  0  0  0  0  0  0
  -48.0512   59.1919   66.7675 C   0  0  0  0  0  0  0  0  0  0  0  0
  -46.7933   59.6836   66.0129 C   0  0  0  0  0  0  0  0  0  0  0  0
  -44.5436   56.7683   66.4542 C   0  0  0  0  0  0  0  0  0  0  0  0
  -43.9943   56.6229   65.1734 C   0  0  0  0  0  0  0  0  0  0  0  0
  -45.4660   57.7883   66.7169 C   0  0  0  0  0  0  0  0  0  0  0  0
  -44.3870   57.5091   64.1706 C   0  0  0  0  0  0  0  0  0  0  0  0
  -45.3119   58.5175   64.4369 C   0  0  0  0  0  0  0  0  0  0  0  0
  -45.8886   58.6584   65.7056 C   0  0  0  0  0  0  0  0  0  0  0  0
  -43.9009   57.4375   62.9072 O   0  0  0  0  0  0  0  0  0  0  0  0
  -45.6722   59.3562   63.4228 O   0  0  0  0  0  0  0  0  0  0  0  0
  -43.2770   56.7756   62.6821 H   0  0  0  0  0  0  0  0  0  0  0  0
  -45.2850   59.2598   62.5750 H   0  0  0  0  0  0  0  0  0  0  0  0
 12 13  1  0  0  0
  9 10  2  0  0  0
  9  8  1  0  0  0
  6  7  2  0  0  0
  6  8  1  0  0  0
 10 11  1  0  0  0
  7  5  1  0  0  0
 16 17  2  0  0  0
 16 18  1  0  0  0
 17 19  1  0  0  0
 18 21  2  0  0  0
 13 11  1  0  0  0
  5  4  1  0  0  0
  4  3  1  0  0  0
  3  2  1  0  0  0
  2  1  1  0  0  0
  1 14  1  0  0  0
 14 15  1  0  0  0
 15 21  1  0  0  0
 19 20  2  0  0  0
 19 22  1  0  0  0
 20 21  1  0  0  0
 20 23  1  0  0  0
 22 24  1  0  0  0
 23 25  1  0  0  0
M  END
> <minimizedAffinity>
-7.67937

> <CNNscore>
0.5285610557

> <CNNaffinity>
6.5313806534

> <CNN_VS>
3.4522335529

> <CNNaffinity_variance>
0.3216989338

$$$$
/media/chris/experiments/cd1a-new-docking/inputs/ligands/5j1a_ligand.pdb


 25 25  0  0  0  0  0  0  0  0999 V2000
  -47.9520   55.8692   59.3351 C   0  0  0  0  0  0  0  0  0  0  0  0
  -49.3473   56.3984   59.6987 C   0  0  0  0  0  0  0  0  0  0  0  0
  -49.3073   57.1258   61.0356 C   0  0  0  0  0  0  0  0  0  0  0  0
  -50.4532   58.1362   61.0984 C   0  0  0  0  0  0  0  0  0  0  0  0
  -49.9677   59.4455   61.7203 C   0  0  0  0  0  0  0  0  0  0  0  0
  -51.0901   59.7652   64.1107 C   0  0  0  0  0  0  0  0  0  0  0  0
  -51.0997   59.9992   62.5874 C   0  0  0  0  0  0  0  0  0  0  0  0
  -50.0362   58.8804   64.7943 C   0  0  0  0  0  0  0  0  0  0  0  0
  -49.7683   59.4832   66.1812 C   0  0  0  0  0  0  0  0  0  0  0  0
  -48.4511   60.2255   66.5108 C   0  0  0  0  0  0  0  0  0  0  0  0
  -47.3486   60.4325   65.4539 C   0  0  0  0  0  0  0  0  0  0  0  0
  -45.7584   59.1311   66.9392 C   0  0  0  0  0  0  0  0  0  0  0  0
  -46.3903   59.2374   65.5492 C   0  0  0  0  0  0  0  0  0  0  0  0
  -47.3119   56.6043   58.1289 C   0  0  0  0  0  0  0  0  0  0  0  0
  -46.0704   57.4422   58.5161 C   0  0  0  0  0  0  0  0  0  0  0  0
  -47.5292   60.7797   59.2151 C   0  0  0  0  0  0  0  0  0  0  0  0
  -46.9859   61.0820   60.4708 C   0  0  0  0  0  0  0  0  0  0  0  0
  -47.2137   59.5726   58.5798 C   0  0  0  0  0  0  0  0  0  0  0  0
  -46.1320   60.1578   61.0724 C   0  0  0  0  0  0  0  0  0  0  0  0
  -45.8284   58.9544   60.4378 C   0  0  0  0  0  0  0  0  0  0  0  0
  -46.3845   58.6276   59.1945 C   0  0  0  0  0  0  0  0  0  0  0  0
  -45.5637   60.3758   62.2836 O   0  0  0  0  0  0  0  0  0  0  0  0
  -44.9944   58.0773   61.0678 O   0  0  0  0  0  0  0  0  0  0  0  0
  -45.7392   61.1709   62.7472 H   0  0  0  0  0  0  0  0  0  0  0  0
  -44.6237   58.2983   61.8996 H   0  0  0  0  0  0  0  0  0  0  0  0
 12 13  1  0  0  0
  9 10  2  0  0  0
  9  8  1  0  0  0
  6  7  2  0  0  0
  6  8  1  0  0  0
 10 11  1  0  0  0
  7  5  1  0  0  0
 16 17  2  0  0  0
 16 18  1  0  0  0
 17 19  1  0  0  0
 18 21  2  0  0  0
 13 11  1  0  0  0
  5  4  1  0  0  0
  4  3  1  0  0  0
  3  2  1  0  0  0
  2  1  1  0  0  0
  1 14  1  0  0  0
 14 15  1  0  0  0
 15 21  1  0  0  0
 19 20  2  0  0  0
 19 22  1  0  0  0
 20 21  1  0  0  0
 20 23  1  0  0  0
 22 24  1  0  0  0
 23 25  1  0  0  0
M  END
> <minimizedAffinity>
-7.95795

> <CNNscore>
0.5157542229

> <CNNaffinity>
6.4824409485

> <CNN_VS>
3.3433463573

> <CNNaffinity_variance>
0.2468444556

$$$$
/media/chris/experiments/cd1a-new-docking/inputs/ligands/5j1a_ligand.pdb


 25 25  0  0  0  0  0  0  0  0999 V2000
  -48.7922   58.9123   61.8560 C   0  0  0  0  0  0  0  0  0  0  0  0
  -49.8580   58.4691   62.8694 C   0  0  0  0  0  0  0  0  0  0  0  0
  -50.7618   59.6386   63.2347 C   0  0  0  0  0  0  0  0  0  0  0  0
  -50.8031   59.7925   64.7555 C   0  0  0  0  0  0  0  0  0  0  0  0
  -49.4095   59.5757   65.3449 C   0  0  0  0  0  0  0  0  0  0  0  0
  -47.1952   60.9030   64.7035 C   0  0  0  0  0  0  0  0  0  0  0  0
  -48.6434   60.8947   65.2311 C   0  0  0  0  0  0  0  0  0  0  0  0
  -46.4315   59.6061   64.3942 C   0  0  0  0  0  0  0  0  0  0  0  0
  -45.1604   59.6117   65.2559 C   0  0  0  0  0  0  0  0  0  0  0  0
  -45.1580   59.0965   66.7152 C   0  0  0  0  0  0  0  0  0  0  0  0
  -46.4245   58.5153   67.3737 C   0  0  0  0  0  0  0  0  0  0  0  0
  -47.4274   56.5109   66.1882 C   0  0  0  0  0  0  0  0  0  0  0  0
  -46.3782   56.9917   67.1937 C   0  0  0  0  0  0  0  0  0  0  0  0
  -49.3618   59.7869   60.7091 C   0  0  0  0  0  0  0  0  0  0  0  0
  -49.6891   58.9778   59.4318 C   0  0  0  0  0  0  0  0  0  0  0  0
  -46.5074   58.6378   57.5566 C   0  0  0  0  0  0  0  0  0  0  0  0
  -46.3179   57.2495   57.5463 C   0  0  0  0  0  0  0  0  0  0  0  0
  -47.6299   59.1940   58.1818 C   0  0  0  0  0  0  0  0  0  0  0  0
  -47.2645   56.4386   58.1720 C   0  0  0  0  0  0  0  0  0  0  0  0
  -48.3757   56.9995   58.7995 C   0  0  0  0  0  0  0  0  0  0  0  0
  -48.5645   58.3868   58.8401 C   0  0  0  0  0  0  0  0  0  0  0  0
  -47.1558   55.0878   58.2041 O   0  0  0  0  0  0  0  0  0  0  0  0
  -49.2715   56.1675   59.4054 O   0  0  0  0  0  0  0  0  0  0  0  0
  -46.4252   54.6667   57.7954 H   0  0  0  0  0  0  0  0  0  0  0  0
  -49.1429   55.2398   59.3768 H   0  0  0  0  0  0  0  0  0  0  0  0
 12 13  1  0  0  0
  9 10  2  0  0  0
  9  8  1  0  0  0
  6  7  2  0  0  0
  6  8  1  0  0  0
 10 11  1  0  0  0
  7  5  1  0  0  0
 16 17  2  0  0  0
 16 18  1  0  0  0
 17 19  1  0  0  0
 18 21  2  0  0  0
 13 11  1  0  0  0
  5  4  1  0  0  0
  4  3  1  0  0  0
  3  2  1  0  0  0
  2  1  1  0  0  0
  1 14  1  0  0  0
 14 15  1  0  0  0
 15 21  1  0  0  0
 19 20  2  0  0  0
 19 22  1  0  0  0
 20 21  1  0  0  0
 20 23  1  0  0  0
 22 24  1  0  0  0
 23 25  1  0  0  0
M  END
> <minimizedAffinity>
-7.72533

> <CNNscore>
0.5083748102

> <CNNaffinity>
6.7239255905

> <CNN_VS>
3.4182744026

> <CNNaffinity_variance>
0.1851421893

$$$$
/media/chris/experiments/cd1a-new-docking/inputs/ligands/5j1a_ligand.pdb


 25 25  0  0  0  0  0  0  0  0999 V2000
  -46.8883   59.4105   57.6880 C   0  0  0  0  0  0  0  0  0  0  0  0
  -46.2995   57.9954   57.7866 C   0  0  0  0  0  0  0  0  0  0  0  0
  -47.3847   56.9519   57.5596 C   0  0  0  0  0  0  0  0  0  0  0  0
  -47.2756   55.8649   58.6293 C   0  0  0  0  0  0  0  0  0  0  0  0
  -48.4918   55.9118   59.5541 C   0  0  0  0  0  0  0  0  0  0  0  0
  -50.1742   57.9288   59.9754 C   0  0  0  0  0  0  0  0  0  0  0  0
  -49.4534   56.9689   59.0086 C   0  0  0  0  0  0  0  0  0  0  0  0
  -50.0593   57.7892   61.5012 C   0  0  0  0  0  0  0  0  0  0  0  0
  -50.6781   59.0512   62.1200 C   0  0  0  0  0  0  0  0  0  0  0  0
  -50.0450   59.7587   63.3422 C   0  0  0  0  0  0  0  0  0  0  0  0
  -48.7374   59.2562   63.9847 C   0  0  0  0  0  0  0  0  0  0  0  0
  -46.7385   60.0710   65.3148 C   0  0  0  0  0  0  0  0  0  0  0  0
  -48.0262   60.4733   64.5919 C   0  0  0  0  0  0  0  0  0  0  0  0
  -47.3355   59.9861   59.0568 C   0  0  0  0  0  0  0  0  0  0  0  0
  -46.6043   59.3393   60.2570 C   0  0  0  0  0  0  0  0  0  0  0  0
  -46.0850   62.5139   62.1030 C   0  0  0  0  0  0  0  0  0  0  0  0
  -44.9347   62.2345   62.8526 C   0  0  0  0  0  0  0  0  0  0  0  0
  -46.6232   61.5464   61.2460 C   0  0  0  0  0  0  0  0  0  0  0  0
  -44.3430   60.9775   62.7301 C   0  0  0  0  0  0  0  0  0  0  0  0
  -44.8887   60.0161   61.8809 C   0  0  0  0  0  0  0  0  0  0  0  0
  -46.0529   60.2725   61.1453 C   0  0  0  0  0  0  0  0  0  0  0  0
  -43.2280   60.6297   63.4181 O   0  0  0  0  0  0  0  0  0  0  0  0
  -44.2803   58.7976   61.7990 O   0  0  0  0  0  0  0  0  0  0  0  0
  -42.8265   61.2438   64.0008 H   0  0  0  0  0  0  0  0  0  0  0  0
  -43.5016   58.6286   62.2922 H   0  0  0  0  0  0  0  0  0  0  0  0
 12 13  1  0  0  0
  9 10  2  0  0  0
  9  8  1  0  0  0
  6  7  2  0  0  0
  6  8  1  0  0  0
 10 11  1  0  0  0
  7  5  1  0  0  0
 16 17  2  0  0  0
 16 18  1  0  0  0
 17 19  1  0  0  0
 18 21  2  0  0  0
 13 11  1  0  0  0
  5  4  1  0  0  0
  4  3  1  0  0  0
  3  2  1  0  0  0
  2  1  1  0  0  0
  1 14  1  0  0  0
 14 15  1  0  0  0
 15 21  1  0  0  0
 19 20  2  0  0  0
 19 22  1  0  0  0
 20 21  1  0  0  0
 20 23  1  0  0  0
 22 24  1  0  0  0
 23 25  1  0  0  0
M  END
> <minimizedAffinity>
-7.48756

> <CNNscore>
0.4806080461

> <CNNaffinity>
6.4285535812

> <CNN_VS>
3.0896146297

> <CNNaffinity_variance>
0.0433427729

$$$$
/media/chris/experiments/cd1a-new-docking/inputs/ligands/5j1a_ligand.pdb


 25 25  0  0  0  0  0  0  0  0999 V2000
  -47.5359   56.6732   56.9069 C   0  0  0  0  0  0  0  0  0  0  0  0
  -47.3965   55.4563   57.8338 C   0  0  0  0  0  0  0  0  0  0  0  0
  -48.2309   55.6497   59.0926 C   0  0  0  0  0  0  0  0  0  0  0  0
  -49.2931   56.7197   58.8382 C   0  0  0  0  0  0  0  0  0  0  0  0
  -49.9591   57.1240   60.1533 C   0  0  0  0  0  0  0  0  0  0  0  0
  -50.0296   59.3675   61.5808 C   0  0  0  0  0  0  0  0  0  0  0  0
  -49.9797   58.6522   60.2165 C   0  0  0  0  0  0  0  0  0  0  0  0
  -50.1838   58.5974   62.9014 C   0  0  0  0  0  0  0  0  0  0  0  0
  -50.4950   59.6297   63.9950 C   0  0  0  0  0  0  0  0  0  0  0  0
  -50.3625   59.2937   65.4998 C   0  0  0  0  0  0  0  0  0  0  0  0
  -49.8759   57.9140   65.9845 C   0  0  0  0  0  0  0  0  0  0  0  0
  -47.7862   56.4785   66.0075 C   0  0  0  0  0  0  0  0  0  0  0  0
  -48.3466   57.8947   65.8558 C   0  0  0  0  0  0  0  0  0  0  0  0
  -46.4274   57.7366   57.1192 C   0  0  0  0  0  0  0  0  0  0  0  0
  -46.9776   59.1031   57.5920 C   0  0  0  0  0  0  0  0  0  0  0  0
  -45.7771   58.6727   61.0747 C   0  0  0  0  0  0  0  0  0  0  0  0
  -46.0770   59.9165   61.6459 C   0  0  0  0  0  0  0  0  0  0  0  0
  -46.0846   58.4179   59.7328 C   0  0  0  0  0  0  0  0  0  0  0  0
  -46.6815   60.8910   60.8522 C   0  0  0  0  0  0  0  0  0  0  0  0
  -46.9777   60.6334   59.5146 C   0  0  0  0  0  0  0  0  0  0  0  0
  -46.6601   59.4039   58.9235 C   0  0  0  0  0  0  0  0  0  0  0  0
  -47.0057   62.1176   61.3295 O   0  0  0  0  0  0  0  0  0  0  0  0
  -47.5621   61.6196   58.7745 O   0  0  0  0  0  0  0  0  0  0  0  0
  -46.8252   62.3355   62.2228 H   0  0  0  0  0  0  0  0  0  0  0  0
  -47.7735   62.4412   59.1724 H   0  0  0  0  0  0  0  0  0  0  0  0
 12 13  1  0  0  0
  9 10  2  0  0  0
  9  8  1  0  0  0
  6  7  2  0  0  0
  6  8  1  0  0  0
 10 11  1  0  0  0
  7  5  1  0  0  0
 16 17  2  0  0  0
 16 18  1  0  0  0
 17 19  1  0  0  0
 18 21  2  0  0  0
 13 11  1  0  0  0
  5  4  1  0  0  0
  4  3  1  0  0  0
  3  2  1  0  0  0
  2  1  1  0  0  0
  1 14  1  0  0  0
 14 15  1  0  0  0
 15 21  1  0  0  0
 19 20  2  0  0  0
 19 22  1  0  0  0
 20 21  1  0  0  0
 20 23  1  0  0  0
 22 24  1  0  0  0
 23 25  1  0  0  0
M  END
> <minimizedAffinity>
-8.37446

> <CNNscore>
0.4630026519

> <CNNaffinity>
6.6191453934

> <CNN_VS>
3.0646817684

> <CNNaffinity_variance>
0.0647461414

$$$$
/media/chris/experiments/cd1a-new-docking/inputs/ligands/5j1a_ligand.pdb


 25 25  0  0  0  0  0  0  0  0999 V2000
  -47.0116   58.0496   66.2084 C   0  0  0  0  0  0  0  0  0  0  0  0
  -48.2698   58.8100   66.6532 C   0  0  0  0  0  0  0  0  0  0  0  0
  -49.4939   58.2901   65.9120 C   0  0  0  0  0  0  0  0  0  0  0  0
  -50.5238   59.4129   65.7826 C   0  0  0  0  0  0  0  0  0  0  0  0
  -50.2325   60.2545   64.5403 C   0  0  0  0  0  0  0  0  0  0  0  0
  -50.5487   59.5089   62.0064 C   0  0  0  0  0  0  0  0  0  0  0  0
  -51.1336   59.7499   63.4119 C   0  0  0  0  0  0  0  0  0  0  0  0
  -49.0992   59.8747   61.6515 C   0  0  0  0  0  0  0  0  0  0  0  0
  -48.2508   58.6101   61.8498 C   0  0  0  0  0  0  0  0  0  0  0  0
  -46.9007   58.4073   61.1211 C   0  0  0  0  0  0  0  0  0  0  0  0
  -46.3147   59.4801   60.1825 C   0  0  0  0  0  0  0  0  0  0  0  0
  -46.1228   57.9961   58.1356 C   0  0  0  0  0  0  0  0  0  0  0  0
  -46.8397   59.1908   58.7695 C   0  0  0  0  0  0  0  0  0  0  0  0
  -46.3718   58.6235   64.9176 C   0  0  0  0  0  0  0  0  0  0  0  0
  -45.3657   59.7659   65.1933 C   0  0  0  0  0  0  0  0  0  0  0  0
  -46.3131   62.2693   62.6260 C   0  0  0  0  0  0  0  0  0  0  0  0
  -45.1047   62.4644   61.9441 C   0  0  0  0  0  0  0  0  0  0  0  0
  -46.3839   61.3703   63.6969 C   0  0  0  0  0  0  0  0  0  0  0  0
  -43.9794   61.7504   62.3554 C   0  0  0  0  0  0  0  0  0  0  0  0
  -44.0551   60.8628   63.4276 C   0  0  0  0  0  0  0  0  0  0  0  0
  -45.2498   60.6772   64.1348 C   0  0  0  0  0  0  0  0  0  0  0  0
  -42.7749   61.8802   61.7472 O   0  0  0  0  0  0  0  0  0  0  0  0
  -42.9267   60.1919   63.7996 O   0  0  0  0  0  0  0  0  0  0  0  0
  -42.6768   62.4655   61.0221 H   0  0  0  0  0  0  0  0  0  0  0  0
  -42.1287   60.3179   63.3248 H   0  0  0  0  0  0  0  0  0  0  0  0
 12 13  1  0  0  0
  9 10  2  0  0  0
  9  8  1  0  0  0
  6  7  2  0  0  0
  6  8  1  0  0  0
 10 11  1  0  0  0
  7  5  1  0  0  0
 16 17  2  0  0  0
 16 18  1  0  0  0
 17 19  1  0  0  0
 18 21  2  0  0  0
 13 11  1  0  0  0
  5  4  1  0  0  0
  4  3  1  0  0  0
  3  2  1  0  0  0
  2  1  1  0  0  0
  1 14  1  0  0  0
 14 15  1  0  0  0
 15 21  1  0  0  0
 19 20  2  0  0  0
 19 22  1  0  0  0
 20 21  1  0  0  0
 20 23  1  0  0  0
 22 24  1  0  0  0
 23 25  1  0  0  0
M  END
> <minimizedAffinity>
-7.17200

> <CNNscore>
0.4078867733

> <CNNaffinity>
6.2538385391

> <CNN_VS>
2.5508580208

> <CNNaffinity_variance>
0.2611426413

$$$$
/media/chris/experiments/cd1a-new-docking/inputs/ligands/5j1a_ligand.pdb


 25 25  0  0  0  0  0  0  0  0999 V2000
  -44.4915   59.0366   64.8028 C   0  0  0  0  0  0  0  0  0  0  0  0
  -45.6368   59.0641   65.8259 C   0  0  0  0  0  0  0  0  0  0  0  0
  -46.9294   59.5205   65.1634 C   0  0  0  0  0  0  0  0  0  0  0  0
  -48.0326   58.5001   65.4462 C   0  0  0  0  0  0  0  0  0  0  0  0
  -48.5642   57.9221   64.1348 C   0  0  0  0  0  0  0  0  0  0  0  0
  -50.5307   58.4238   62.4150 C   0  0  0  0  0  0  0  0  0  0  0  0
  -49.8213   58.7060   63.7539 C   0  0  0  0  0  0  0  0  0  0  0  0
  -49.9511   57.4557   61.3721 C   0  0  0  0  0  0  0  0  0  0  0  0
  -50.6140   57.7877   60.0272 C   0  0  0  0  0  0  0  0  0  0  0  0
  -49.8336   57.7257   58.6922 C   0  0  0  0  0  0  0  0  0  0  0  0
  -48.3558   57.2921   58.6343 C   0  0  0  0  0  0  0  0  0  0  0  0
  -46.2599   57.8324   57.3137 C   0  0  0  0  0  0  0  0  0  0  0  0
  -47.5925   58.3652   57.8458 C   0  0  0  0  0  0  0  0  0  0  0  0
  -44.6813   57.9655   63.6976 C   0  0  0  0  0  0  0  0  0  0  0  0
  -44.3874   58.4995   62.2757 C   0  0  0  0  0  0  0  0  0  0  0  0
  -47.4759   60.1074   60.9986 C   0  0  0  0  0  0  0  0  0  0  0  0
  -47.0955   61.4534   60.9163 C   0  0  0  0  0  0  0  0  0  0  0  0
  -46.5671   59.1414   61.4471 C   0  0  0  0  0  0  0  0  0  0  0  0
  -45.8003   61.8086   61.2925 C   0  0  0  0  0  0  0  0  0  0  0  0
  -44.9030   60.8430   61.7457 C   0  0  0  0  0  0  0  0  0  0  0  0
  -45.2776   59.4979   61.8577 C   0  0  0  0  0  0  0  0  0  0  0  0
  -45.3540   63.0875   61.2398 O   0  0  0  0  0  0  0  0  0  0  0  0
  -43.6489   61.2381   62.1102 O   0  0  0  0  0  0  0  0  0  0  0  0
  -45.9224   63.7702   60.9416 H   0  0  0  0  0  0  0  0  0  0  0  0
  -43.4008   62.1385   62.0344 H   0  0  0  0  0  0  0  0  0  0  0  0
 12 13  1  0  0  0
  9 10  2  0  0  0
  9  8  1  0  0  0
  6  7  2  0  0  0
  6  8  1  0  0  0
 10 11  1  0  0  0
  7  5  1  0  0  0
 16 17  2  0  0  0
 16 18  1  0  0  0
 17 19  1  0  0  0
 18 21  2  0  0  0
 13 11  1  0  0  0
  5  4  1  0  0  0
  4  3  1  0  0  0
  3  2  1  0  0  0
  2  1  1  0  0  0
  1 14  1  0  0  0
 14 15  1  0  0  0
 15 21  1  0  0  0
 19 20  2  0  0  0
 19 22  1  0  0  0
 20 21  1  0  0  0
 20 23  1  0  0  0
 22 24  1  0  0  0
 23 25  1  0  0  0
M  END
> <minimizedAffinity>
-7.23075

> <CNNscore>
0.4059082568

> <CNNaffinity>
6.4766607285

> <CNN_VS>
2.6289300919

> <CNNaffinity_variance>
0.2646518350

$$$$
/media/chris/experiments/cd1a-new-docking/inputs/ligands/5j1a_ligand.pdb


 25 25  0  0  0  0  0  0  0  0999 V2000
  -47.4246   58.6994   63.2111 C   0  0  0  0  0  0  0  0  0  0  0  0
  -48.7511   58.0250   63.5915 C   0  0  0  0  0  0  0  0  0  0  0  0
  -49.9194   58.7385   62.9253 C   0  0  0  0  0  0  0  0  0  0  0  0
  -50.4843   57.8566   61.8112 C   0  0  0  0  0  0  0  0  0  0  0  0
  -50.0725   58.4051   60.4452 C   0  0  0  0  0  0  0  0  0  0  0  0
  -48.7249   56.4491   59.2476 C   0  0  0  0  0  0  0  0  0  0  0  0
  -50.0343   57.2331   59.4630 C   0  0  0  0  0  0  0  0  0  0  0  0
  -47.4006   56.8768   59.8987 C   0  0  0  0  0  0  0  0  0  0  0  0
  -46.3715   57.0379   58.7702 C   0  0  0  0  0  0  0  0  0  0  0  0
  -46.2906   58.3239   57.9131 C   0  0  0  0  0  0  0  0  0  0  0  0
  -47.2157   59.5299   58.1683 C   0  0  0  0  0  0  0  0  0  0  0  0
  -47.8642   61.1538   60.0043 C   0  0  0  0  0  0  0  0  0  0  0  0
  -46.8426   60.1137   59.5379 C   0  0  0  0  0  0  0  0  0  0  0  0
  -47.3666   60.2005   63.5960 C   0  0  0  0  0  0  0  0  0  0  0  0
  -46.1240   60.5640   64.4429 C   0  0  0  0  0  0  0  0  0  0  0  0
  -44.4018   62.5240   61.8071 C   0  0  0  0  0  0  0  0  0  0  0  0
  -43.0518   62.2873   62.0980 C   0  0  0  0  0  0  0  0  0  0  0  0
  -45.4067   61.9437   62.5905 C   0  0  0  0  0  0  0  0  0  0  0  0
  -42.7325   61.4685   63.1810 C   0  0  0  0  0  0  0  0  0  0  0  0
  -43.7379   60.9003   63.9617 C   0  0  0  0  0  0  0  0  0  0  0  0
  -45.0909   61.1492   63.6984 C   0  0  0  0  0  0  0  0  0  0  0  0
  -41.4520   61.1883   63.5265 O   0  0  0  0  0  0  0  0  0  0  0  0
  -43.3780   60.1124   65.0159 O   0  0  0  0  0  0  0  0  0  0  0  0
  -40.7433   61.5484   63.0304 H   0  0  0  0  0  0  0  0  0  0  0  0
  -42.4722   59.9475   65.1899 H   0  0  0  0  0  0  0  0  0  0  0  0
 12 13  1  0  0  0
  9 10  2  0  0  0
  9  8  1  0  0  0
  6  7  2  0  0  0
  6  8  1  0  0  0
 10 11  1  0  0  0
  7  5  1  0  0  0
 16 17  2  0  0  0
 16 18  1  0  0  0
 17 19  1  0  0  0
 18 21  2  0  0  0
 13 11  1  0  0  0
  5  4  1  0  0  0
  4  3  1  0  0  0
  3  2  1  0  0  0
  2  1  1  0  0  0
  1 14  1  0  0  0
 14 15  1  0  0  0
 15 21  1  0  0  0
 19 20  2  0  0  0
 19 22  1  0  0  0
 20 21  1  0  0  0
 20 23  1  0  0  0
 22 24  1  0  0  0
 23 25  1  0  0  0
M  END
> <minimizedAffinity>
-7.46173

> <CNNscore>
0.3642096519

> <CNNaffinity>
6.1200175285

> <CNN_VS>
2.2289693356

> <CNNaffinity_variance>
0.1492390931

$$$$
