/media/chris/experiments/cd1a-new-docking/inputs/ligands/5j1a_ligand.pdb


 25 25  0  0  0  0  0  0  0  0999 V2000
  -45.7016   58.2769   60.9003 C   0  0  0  0  0  0  0  0  0  0  0  0
  -46.2074   57.8132   59.5261 C   0  0  0  0  0  0  0  0  0  0  0  0
  -46.9395   58.9462   58.8201 C   0  0  0  0  0  0  0  0  0  0  0  0
  -48.1470   58.3814   58.0711 C   0  0  0  0  0  0  0  0  0  0  0  0
  -49.4326   58.6826   58.8412 C   0  0  0  0  0  0  0  0  0  0  0  0
  -50.6860   57.2480   60.6979 C   0  0  0  0  0  0  0  0  0  0  0  0
  -50.0184   57.3504   59.3125 C   0  0  0  0  0  0  0  0  0  0  0  0
  -50.6820   58.4174   61.6944 C   0  0  0  0  0  0  0  0  0  0  0  0
  -49.4201   58.2734   62.5577 C   0  0  0  0  0  0  0  0  0  0  0  0
  -49.2696   58.9998   63.9158 C   0  0  0  0  0  0  0  0  0  0  0  0
  -50.3939   59.8807   64.4949 C   0  0  0  0  0  0  0  0  0  0  0  0
  -50.0654   58.0313   66.1979 C   0  0  0  0  0  0  0  0  0  0  0  0
  -50.6307   59.4306   65.9430 C   0  0  0  0  0  0  0  0  0  0  0  0
  -46.3874   59.5744   61.4011 C   0  0  0  0  0  0  0  0  0  0  0  0
  -45.9417   59.9880   62.8237 C   0  0  0  0  0  0  0  0  0  0  0  0
  -43.3769   62.4944   61.8776 C   0  0  0  0  0  0  0  0  0  0  0  0
  -42.3377   62.2053   62.7719 C   0  0  0  0  0  0  0  0  0  0  0  0
  -44.5618   61.7493   61.9052 C   0  0  0  0  0  0  0  0  0  0  0  0
  -42.5100   61.1673   63.6875 C   0  0  0  0  0  0  0  0  0  0  0  0
  -43.6955   60.4345   63.7147 C   0  0  0  0  0  0  0  0  0  0  0  0
  -44.7526   60.7293   62.8442 C   0  0  0  0  0  0  0  0  0  0  0  0
  -41.5528   60.8232   64.5835 O   0  0  0  0  0  0  0  0  0  0  0  0
  -43.8222   59.4333   64.6330 O   0  0  0  0  0  0  0  0  0  0  0  0
  -40.7394   61.2882   64.6019 H   0  0  0  0  0  0  0  0  0  0  0  0
  -43.1137   59.2381   65.2141 H   0  0  0  0  0  0  0  0  0  0  0  0
 12 13  1  0  0  0
  9 10  2  0  0  0
  9  8  1  0  0  0
  6  7  2  0  0  0
  6  8  1  0  0  0
 10 11  1  0  0  0
  7  5  1  0  0  0
 16 17  2  0  0  0
 16 18  1  0  0  0
 17 19  1  0  0  0
 18 21  2  0  0  0
 13 11  1  0  0  0
  5  4  1  0  0  0
  4  3  1  0  0  0
  3  2  1  0  0  0
  2  1  1  0  0  0
  1 14  1  0  0  0
 14 15  1  0  0  0
 15 21  1  0  0  0
 19 20  2  0  0  0
 19 22  1  0  0  0
 20 21  1  0  0  0
 20 23  1  0  0  0
 22 24  1  0  0  0
 23 25  1  0  0  0
M  END
> <minimizedAffinity>
-7.58746

> <CNNscore>
0.5411649346

> <CNNaffinity>
6.4097223282

> <CNN_VS>
3.4687168598

> <CNNaffinity_variance>
0.1626587510

$$$$
/media/chris/experiments/cd1a-new-docking/inputs/ligands/5j1a_ligand.pdb


 25 25  0  0  0  0  0  0  0  0999 V2000
  -47.5918   59.0145   66.1990 C   0  0  0  0  0  0  0  0  0  0  0  0
  -48.0611   57.9566   65.1893 C   0  0  0  0  0  0  0  0  0  0  0  0
  -49.3208   58.4267   64.4750 C   0  0  0  0  0  0  0  0  0  0  0  0
  -49.2089   58.1055   62.9842 C   0  0  0  0  0  0  0  0  0  0  0  0
  -48.6146   59.2960   62.2320 C   0  0  0  0  0  0  0  0  0  0  0  0
  -48.9593   60.0551   59.7059 C   0  0  0  0  0  0  0  0  0  0  0  0
  -49.5465   59.6236   61.0640 C   0  0  0  0  0  0  0  0  0  0  0  0
  -47.4544   60.2914   59.5052 C   0  0  0  0  0  0  0  0  0  0  0  0
  -47.0642   59.6273   58.1766 C   0  0  0  0  0  0  0  0  0  0  0  0
  -46.7820   58.1095   58.0716 C   0  0  0  0  0  0  0  0  0  0  0  0
  -46.9117   57.1728   59.2887 C   0  0  0  0  0  0  0  0  0  0  0  0
  -49.0426   55.9503   59.9158 C   0  0  0  0  0  0  0  0  0  0  0  0
  -47.8957   56.0581   58.9080 C   0  0  0  0  0  0  0  0  0  0  0  0
  -47.0784   60.3162   65.5306 C   0  0  0  0  0  0  0  0  0  0  0  0
  -45.6054   60.2220   65.0671 C   0  0  0  0  0  0  0  0  0  0  0  0
  -46.1027   62.5150   62.1947 C   0  0  0  0  0  0  0  0  0  0  0  0
  -44.8074   62.6158   61.6699 C   0  0  0  0  0  0  0  0  0  0  0  0
  -46.3509   61.7161   63.3172 C   0  0  0  0  0  0  0  0  0  0  0  0
  -43.7760   61.9098   62.2889 C   0  0  0  0  0  0  0  0  0  0  0  0
  -44.0288   61.1224   63.4110 C   0  0  0  0  0  0  0  0  0  0  0  0
  -45.3135   61.0329   63.9619 C   0  0  0  0  0  0  0  0  0  0  0  0
  -42.4970   61.9521   61.8418 O   0  0  0  0  0  0  0  0  0  0  0  0
  -42.9873   60.4559   63.9880 O   0  0  0  0  0  0  0  0  0  0  0  0
  -42.2802   62.4683   61.0905 H   0  0  0  0  0  0  0  0  0  0  0  0
  -42.1290   60.5175   63.6175 H   0  0  0  0  0  0  0  0  0  0  0  0
 12 13  1  0  0  0
  9 10  2  0  0  0
  9  8  1  0  0  0
  6  7  2  0  0  0
  6  8  1  0  0  0
 10 11  1  0  0  0
  7  5  1  0  0  0
 16 17  2  0  0  0
 16 18  1  0  0  0
 17 19  1  0  0  0
 18 21  2  0  0  0
 13 11  1  0  0  0
  5  4  1  0  0  0
  4  3  1  0  0  0
  3  2  1  0  0  0
  2  1  1  0  0  0
  1 14  1  0  0  0
 14 15  1  0  0  0
 15 21  1  0  0  0
 19 20  2  0  0  0
 19 22  1  0  0  0
 20 21  1  0  0  0
 20 23  1  0  0  0
 22 24  1  0  0  0
 23 25  1  0  0  0
M  END
> <minimizedAffinity>
-7.29660

> <CNNscore>
0.4694877863

> <CNNaffinity>
6.2583513260

> <CNN_VS>
2.9382195473

> <CNNaffinity_variance>
0.2680979371

$$$$
/media/chris/experiments/cd1a-new-docking/inputs/ligands/5j1a_ligand.pdb


 25 25  0  0  0  0  0  0  0  0999 V2000
  -46.2936   57.9758   58.6063 C   0  0  0  0  0  0  0  0  0  0  0  0
  -46.8795   56.6364   58.1354 C   0  0  0  0  0  0  0  0  0  0  0  0
  -48.3968   56.6473   58.2613 C   0  0  0  0  0  0  0  0  0  0  0  0
  -48.9077   58.0814   58.1187 C   0  0  0  0  0  0  0  0  0  0  0  0
  -50.1851   58.2692   58.9371 C   0  0  0  0  0  0  0  0  0  0  0  0
  -50.2665   57.9655   61.5785 C   0  0  0  0  0  0  0  0  0  0  0  0
  -50.0879   57.3679   60.1691 C   0  0  0  0  0  0  0  0  0  0  0  0
  -50.4214   59.4763   61.8110 C   0  0  0  0  0  0  0  0  0  0  0  0
  -51.1777   59.6563   63.1354 C   0  0  0  0  0  0  0  0  0  0  0  0
  -50.4492   60.0183   64.4518 C   0  0  0  0  0  0  0  0  0  0  0  0
  -48.9267   60.2537   64.4996 C   0  0  0  0  0  0  0  0  0  0  0  0
  -48.6865   57.7652   64.9213 C   0  0  0  0  0  0  0  0  0  0  0  0
  -48.3225   59.1712   65.4044 C   0  0  0  0  0  0  0  0  0  0  0  0
  -45.7173   57.9220   60.0450 C   0  0  0  0  0  0  0  0  0  0  0  0
  -46.7395   58.3461   61.1261 C   0  0  0  0  0  0  0  0  0  0  0  0
  -46.3121   61.9421   61.9267 C   0  0  0  0  0  0  0  0  0  0  0  0
  -45.5800   61.8937   63.1205 C   0  0  0  0  0  0  0  0  0  0  0  0
  -46.6852   60.7594   61.2772 C   0  0  0  0  0  0  0  0  0  0  0  0
  -45.2363   60.6485   63.6465 C   0  0  0  0  0  0  0  0  0  0  0  0
  -45.6177   59.4747   62.9987 C   0  0  0  0  0  0  0  0  0  0  0  0
  -46.3719   59.5076   61.8188 C   0  0  0  0  0  0  0  0  0  0  0  0
  -44.5277   60.5159   64.7945 O   0  0  0  0  0  0  0  0  0  0  0  0
  -45.2658   58.2792   63.5545 O   0  0  0  0  0  0  0  0  0  0  0  0
  -44.2498   61.2776   65.2641 H   0  0  0  0  0  0  0  0  0  0  0  0
  -44.7613   58.2600   64.3438 H   0  0  0  0  0  0  0  0  0  0  0  0
 12 13  1  0  0  0
  9 10  2  0  0  0
  9  8  1  0  0  0
  6  7  2  0  0  0
  6  8  1  0  0  0
 10 11  1  0  0  0
  7  5  1  0  0  0
 16 17  2  0  0  0
 16 18  1  0  0  0
 17 19  1  0  0  0
 18 21  2  0  0  0
 13 11  1  0  0  0
  5  4  1  0  0  0
  4  3  1  0  0  0
  3  2  1  0  0  0
  2  1  1  0  0  0
  1 14  1  0  0  0
 14 15  1  0  0  0
 15 21  1  0  0  0
 19 20  2  0  0  0
 19 22  1  0  0  0
 20 21  1  0  0  0
 20 23  1  0  0  0
 22 24  1  0  0  0
 23 25  1  0  0  0
M  END
> <minimizedAffinity>
-7.29119

> <CNNscore>
0.4025281966

> <CNNaffinity>
6.3990812302

> <CNN_VS>
2.5758106709

> <CNNaffinity_variance>
0.1527097076

$$$$
/media/chris/experiments/cd1a-new-docking/inputs/ligands/5j1a_ligand.pdb


 25 25  0  0  0  0  0  0  0  0999 V2000
  -48.5902   56.1700   58.7543 C   0  0  0  0  0  0  0  0  0  0  0  0
  -49.2730   56.1256   60.1294 C   0  0  0  0  0  0  0  0  0  0  0  0
  -50.3997   57.1475   60.1957 C   0  0  0  0  0  0  0  0  0  0  0  0
  -49.8879   58.4251   60.8618 C   0  0  0  0  0  0  0  0  0  0  0  0
  -49.1593   58.0856   62.1620 C   0  0  0  0  0  0  0  0  0  0  0  0
  -49.4739   58.6743   64.7370 C   0  0  0  0  0  0  0  0  0  0  0  0
  -50.0654   58.4917   63.3256 C   0  0  0  0  0  0  0  0  0  0  0  0
  -48.0080   58.3433   65.0569 C   0  0  0  0  0  0  0  0  0  0  0  0
  -47.9801   56.9214   65.6366 C   0  0  0  0  0  0  0  0  0  0  0  0
  -46.6863   56.2965   66.2111 C   0  0  0  0  0  0  0  0  0  0  0  0
  -45.3604   57.0804   66.2662 C   0  0  0  0  0  0  0  0  0  0  0  0
  -43.3104   56.2516   65.0256 C   0  0  0  0  0  0  0  0  0  0  0  0
  -44.6784   56.9265   64.8999 C   0  0  0  0  0  0  0  0  0  0  0  0
  -47.0417   56.1763   58.8377 C   0  0  0  0  0  0  0  0  0  0  0  0
  -46.4170   57.5372   58.4487 C   0  0  0  0  0  0  0  0  0  0  0  0
  -45.4846   58.7578   61.8245 C   0  0  0  0  0  0  0  0  0  0  0  0
  -45.9495   60.0794   61.7993 C   0  0  0  0  0  0  0  0  0  0  0  0
  -45.6500   57.9284   60.7090 C   0  0  0  0  0  0  0  0  0  0  0  0
  -46.5737   60.5489   60.6437 C   0  0  0  0  0  0  0  0  0  0  0  0
  -46.7281   59.7200   59.5338 C   0  0  0  0  0  0  0  0  0  0  0  0
  -46.2452   58.4052   59.5355 C   0  0  0  0  0  0  0  0  0  0  0  0
  -47.0531   61.8126   60.5399 O   0  0  0  0  0  0  0  0  0  0  0  0
  -47.3379   60.2250   58.4225 O   0  0  0  0  0  0  0  0  0  0  0  0
  -46.9716   62.4054   61.2610 H   0  0  0  0  0  0  0  0  0  0  0  0
  -47.6600   61.1049   58.4239 H   0  0  0  0  0  0  0  0  0  0  0  0
 12 13  1  0  0  0
  9 10  2  0  0  0
  9  8  1  0  0  0
  6  7  2  0  0  0
  6  8  1  0  0  0
 10 11  1  0  0  0
  7  5  1  0  0  0
 16 17  2  0  0  0
 16 18  1  0  0  0
 17 19  1  0  0  0
 18 21  2  0  0  0
 13 11  1  0  0  0
  5  4  1  0  0  0
  4  3  1  0  0  0
  3  2  1  0  0  0
  2  1  1  0  0  0
  1 14  1  0  0  0
 14 15  1  0  0  0
 15 21  1  0  0  0
 19 20  2  0  0  0
 19 22  1  0  0  0
 20 21  1  0  0  0
 20 23  1  0  0  0
 22 24  1  0  0  0
 23 25  1  0  0  0
M  END
> <minimizedAffinity>
-7.55142

> <CNNscore>
0.3895904422

> <CNNaffinity>
6.6568412781

> <CNN_VS>
2.5934417248

> <CNNaffinity_variance>
0.2639301419

$$$$
/media/chris/experiments/cd1a-new-docking/inputs/ligands/5j1a_ligand.pdb


 25 25  0  0  0  0  0  0  0  0999 V2000
  -35.9708   57.4404   63.8183 C   0  0  0  0  0  0  0  0  0  0  0  0
  -37.4198   57.3017   63.3282 C   0  0  0  0  0  0  0  0  0  0  0  0
  -37.4473   56.9180   61.8550 C   0  0  0  0  0  0  0  0  0  0  0  0
  -37.2259   58.1669   61.0010 C   0  0  0  0  0  0  0  0  0  0  0  0
  -38.5477   58.6249   60.3850 C   0  0  0  0  0  0  0  0  0  0  0  0
  -39.5665   60.3972   62.0871 C   0  0  0  0  0  0  0  0  0  0  0  0
  -38.7788   60.0786   60.8012 C   0  0  0  0  0  0  0  0  0  0  0  0
  -40.2460   59.3003   62.9211 C   0  0  0  0  0  0  0  0  0  0  0  0
  -41.6429   59.0761   62.3238 C   0  0  0  0  0  0  0  0  0  0  0  0
  -42.0833   57.7024   61.7639 C   0  0  0  0  0  0  0  0  0  0  0  0
  -41.1558   56.4722   61.8071 C   0  0  0  0  0  0  0  0  0  0  0  0
  -41.7295   54.3384   63.0507 C   0  0  0  0  0  0  0  0  0  0  0  0
  -41.3330   55.8110   63.1809 C   0  0  0  0  0  0  0  0  0  0  0  0
  -35.6268   58.8663   64.3218 C   0  0  0  0  0  0  0  0  0  0  0  0
  -36.8680   59.6615   64.7914 C   0  0  0  0  0  0  0  0  0  0  0  0
  -36.1040   63.0389   63.4628 C   0  0  0  0  0  0  0  0  0  0  0  0
  -36.2336   63.8413   64.6041 C   0  0  0  0  0  0  0  0  0  0  0  0
  -36.3139   61.6570   63.5420 C   0  0  0  0  0  0  0  0  0  0  0  0
  -36.5781   63.2371   65.8132 C   0  0  0  0  0  0  0  0  0  0  0  0
  -36.7932   61.8617   65.8833 C   0  0  0  0  0  0  0  0  0  0  0  0
  -36.6926   61.0512   64.7453 C   0  0  0  0  0  0  0  0  0  0  0  0
  -36.7205   63.9420   66.9622 O   0  0  0  0  0  0  0  0  0  0  0  0
  -37.1361   61.3158   67.0859 O   0  0  0  0  0  0  0  0  0  0  0  0
  -36.5857   64.8693   66.9629 H   0  0  0  0  0  0  0  0  0  0  0  0
  -37.2027   61.8602   67.8455 H   0  0  0  0  0  0  0  0  0  0  0  0
 12 13  1  0  0  0
  9 10  2  0  0  0
  9  8  1  0  0  0
  6  7  2  0  0  0
  6  8  1  0  0  0
 10 11  1  0  0  0
  7  5  1  0  0  0
 16 17  2  0  0  0
 16 18  1  0  0  0
 17 19  1  0  0  0
 18 21  2  0  0  0
 13 11  1  0  0  0
  5  4  1  0  0  0
  4  3  1  0  0  0
  3  2  1  0  0  0
  2  1  1  0  0  0
  1 14  1  0  0  0
 14 15  1  0  0  0
 15 21  1  0  0  0
 19 20  2  0  0  0
 19 22  1  0  0  0
 20 21  1  0  0  0
 20 23  1  0  0  0
 22 24  1  0  0  0
 23 25  1  0  0  0
M  END
> <minimizedAffinity>
-7.27041

> <CNNscore>
0.3594966531

> <CNNaffinity>
5.9133610725

> <CNN_VS>
2.1258335114

> <CNNaffinity_variance>
0.0953676030

$$$$
/media/chris/experiments/cd1a-new-docking/inputs/ligands/5j1a_ligand.pdb


 25 25  0  0  0  0  0  0  0  0999 V2000
  -35.4000   59.5275   64.3874 C   0  0  0  0  0  0  0  0  0  0  0  0
  -35.3099   58.0434   64.0024 C   0  0  0  0  0  0  0  0  0  0  0  0
  -36.6706   57.5278   63.5543 C   0  0  0  0  0  0  0  0  0  0  0  0
  -36.5884   57.0808   62.0943 C   0  0  0  0  0  0  0  0  0  0  0  0
  -37.9245   57.3243   61.3929 C   0  0  0  0  0  0  0  0  0  0  0  0
  -38.9220   59.6832   60.6740 C   0  0  0  0  0  0  0  0  0  0  0  0
  -37.8044   58.6248   60.5965 C   0  0  0  0  0  0  0  0  0  0  0  0
  -40.2323   59.4326   61.4363 C   0  0  0  0  0  0  0  0  0  0  0  0
  -40.2410   60.3779   62.6465 C   0  0  0  0  0  0  0  0  0  0  0  0
  -40.1010   59.8541   64.0958 C   0  0  0  0  0  0  0  0  0  0  0  0
  -39.9090   58.3560   64.4033 C   0  0  0  0  0  0  0  0  0  0  0  0
  -41.2736   56.4313   63.4751 C   0  0  0  0  0  0  0  0  0  0  0  0
  -41.2919   57.6931   64.3412 C   0  0  0  0  0  0  0  0  0  0  0  0
  -35.8786   60.4354   63.2248 C   0  0  0  0  0  0  0  0  0  0  0  0
  -36.8640   61.5379   63.6799 C   0  0  0  0  0  0  0  0  0  0  0  0
  -34.6152   64.2414   64.8585 C   0  0  0  0  0  0  0  0  0  0  0  0
  -35.0033   64.3855   66.1972 C   0  0  0  0  0  0  0  0  0  0  0  0
  -35.2384   63.2922   64.0396 C   0  0  0  0  0  0  0  0  0  0  0  0
  -36.0208   63.5699   66.6921 C   0  0  0  0  0  0  0  0  0  0  0  0
  -36.6423   62.6322   65.8690 C   0  0  0  0  0  0  0  0  0  0  0  0
  -36.2826   62.4952   64.5222 C   0  0  0  0  0  0  0  0  0  0  0  0
  -36.4521   63.6450   67.9750 O   0  0  0  0  0  0  0  0  0  0  0  0
  -37.6382   61.8616   66.3945 O   0  0  0  0  0  0  0  0  0  0  0  0
  -36.0634   64.2607   68.5647 H   0  0  0  0  0  0  0  0  0  0  0  0
  -37.8769   61.9552   67.2957 H   0  0  0  0  0  0  0  0  0  0  0  0
 12 13  1  0  0  0
  9 10  2  0  0  0
  9  8  1  0  0  0
  6  7  2  0  0  0
  6  8  1  0  0  0
 10 11  1  0  0  0
  7  5  1  0  0  0
 16 17  2  0  0  0
 16 18  1  0  0  0
 17 19  1  0  0  0
 18 21  2  0  0  0
 13 11  1  0  0  0
  5  4  1  0  0  0
  4  3  1  0  0  0
  3  2  1  0  0  0
  2  1  1  0  0  0
  1 14  1  0  0  0
 14 15  1  0  0  0
 15 21  1  0  0  0
 19 20  2  0  0  0
 19 22  1  0  0  0
 20 21  1  0  0  0
 20 23  1  0  0  0
 22 24  1  0  0  0
 23 25  1  0  0  0
M  END
> <minimizedAffinity>
-7.06439

> <CNNscore>
0.3222312927

> <CNNaffinity>
5.8401312828

> <CNN_VS>
1.8818730116

> <CNNaffinity_variance>
0.2170762122

$$$$
/media/chris/experiments/cd1a-new-docking/inputs/ligands/5j1a_ligand.pdb


 25 25  0  0  0  0  0  0  0  0999 V2000
  -39.4155   60.3294   61.8233 C   0  0  0  0  0  0  0  0  0  0  0  0
  -38.8152   59.9924   60.4503 C   0  0  0  0  0  0  0  0  0  0  0  0
  -39.0744   58.5332   60.1015 C   0  0  0  0  0  0  0  0  0  0  0  0
  -39.5705   57.7944   61.3449 C   0  0  0  0  0  0  0  0  0  0  0  0
  -38.5834   56.6935   61.7325 C   0  0  0  0  0  0  0  0  0  0  0  0
  -36.3707   57.6453   62.8612 C   0  0  0  0  0  0  0  0  0  0  0  0
  -37.8287   57.1596   62.9787 C   0  0  0  0  0  0  0  0  0  0  0  0
  -35.5880   57.5671   61.5414 C   0  0  0  0  0  0  0  0  0  0  0  0
  -34.2631   56.8509   61.8415 C   0  0  0  0  0  0  0  0  0  0  0  0
  -33.0351   57.6035   62.4073 C   0  0  0  0  0  0  0  0  0  0  0  0
  -33.0849   59.1088   62.7351 C   0  0  0  0  0  0  0  0  0  0  0  0
  -32.0617   61.3249   62.0493 C   0  0  0  0  0  0  0  0  0  0  0  0
  -32.0580   59.8094   61.8350 C   0  0  0  0  0  0  0  0  0  0  0  0
  -38.3660   60.8438   62.8426 C   0  0  0  0  0  0  0  0  0  0  0  0
  -36.9819   61.1143   62.2067 C   0  0  0  0  0  0  0  0  0  0  0  0
  -34.8636   61.5750   65.2160 C   0  0  0  0  0  0  0  0  0  0  0  0
  -34.2751   62.8234   64.9743 C   0  0  0  0  0  0  0  0  0  0  0  0
  -35.7598   61.0247   64.2920 C   0  0  0  0  0  0  0  0  0  0  0  0
  -34.5969   63.5003   63.7980 C   0  0  0  0  0  0  0  0  0  0  0  0
  -35.4841   62.9429   62.8787 C   0  0  0  0  0  0  0  0  0  0  0  0
  -36.0598   61.6844   63.0948 C   0  0  0  0  0  0  0  0  0  0  0  0
  -34.0731   64.7124   63.4914 O   0  0  0  0  0  0  0  0  0  0  0  0
  -35.7632   63.6379   61.7380 O   0  0  0  0  0  0  0  0  0  0  0  0
  -33.4723   65.1255   64.0798 H   0  0  0  0  0  0  0  0  0  0  0  0
  -35.3768   64.4795   61.5959 H   0  0  0  0  0  0  0  0  0  0  0  0
 12 13  1  0  0  0
  9 10  2  0  0  0
  9  8  1  0  0  0
  6  7  2  0  0  0
  6  8  1  0  0  0
 10 11  1  0  0  0
  7  5  1  0  0  0
 16 17  2  0  0  0
 16 18  1  0  0  0
 17 19  1  0  0  0
 18 21  2  0  0  0
 13 11  1  0  0  0
  5  4  1  0  0  0
  4  3  1  0  0  0
  3  2  1  0  0  0
  2  1  1  0  0  0
  1 14  1  0  0  0
 14 15  1  0  0  0
 15 21  1  0  0  0
 19 20  2  0  0  0
 19 22  1  0  0  0
 20 21  1  0  0  0
 20 23  1  0  0  0
 22 24  1  0  0  0
 23 25  1  0  0  0
M  END
> <minimizedAffinity>
-7.25354

> <CNNscore>
0.2706591189

> <CNNaffinity>
5.9396481514

> <CNN_VS>
1.6076198816

> <CNNaffinity_variance>
0.1194632053

$$$$
/media/chris/experiments/cd1a-new-docking/inputs/ligands/5j1a_ligand.pdb


 25 25  0  0  0  0  0  0  0  0999 V2000
  -35.1876   58.1275   63.6737 C   0  0  0  0  0  0  0  0  0  0  0  0
  -34.6786   59.5120   63.2457 C   0  0  0  0  0  0  0  0  0  0  0  0
  -35.6766   60.5907   63.6439 C   0  0  0  0  0  0  0  0  0  0  0  0
  -36.4439   60.1386   64.8868 C   0  0  0  0  0  0  0  0  0  0  0  0
  -37.9455   60.1218   64.6017 C   0  0  0  0  0  0  0  0  0  0  0  0
  -40.0102   58.5161   65.0863 C   0  0  0  0  0  0  0  0  0  0  0  0
  -38.4892   58.7603   65.0384 C   0  0  0  0  0  0  0  0  0  0  0  0
  -41.0260   59.6390   64.8253 C   0  0  0  0  0  0  0  0  0  0  0  0
  -42.1281   59.5095   65.8869 C   0  0  0  0  0  0  0  0  0  0  0  0
  -43.3001   58.5109   65.7330 C   0  0  0  0  0  0  0  0  0  0  0  0
  -43.4073   57.5643   64.5213 C   0  0  0  0  0  0  0  0  0  0  0  0
  -42.2772   55.3984   63.8430 C   0  0  0  0  0  0  0  0  0  0  0  0
  -42.9438   56.1752   64.9809 C   0  0  0  0  0  0  0  0  0  0  0  0
  -35.3532   57.1409   62.4887 C   0  0  0  0  0  0  0  0  0  0  0  0
  -36.0491   57.7757   61.2614 C   0  0  0  0  0  0  0  0  0  0  0  0
  -39.5668   56.7669   61.8644 C   0  0  0  0  0  0  0  0  0  0  0  0
  -40.2651   57.9486   61.5828 C   0  0  0  0  0  0  0  0  0  0  0  0
  -38.1722   56.7250   61.7500 C   0  0  0  0  0  0  0  0  0  0  0  0
  -39.5442   59.0769   61.1920 C   0  0  0  0  0  0  0  0  0  0  0  0
  -38.1550   59.0303   61.0877 C   0  0  0  0  0  0  0  0  0  0  0  0
  -37.4418   57.8635   61.3911 C   0  0  0  0  0  0  0  0  0  0  0  0
  -40.1444   60.2566   60.8996 O   0  0  0  0  0  0  0  0  0  0  0  0
  -37.4912   60.1609   60.7094 O   0  0  0  0  0  0  0  0  0  0  0  0
  -41.0765   60.3347   60.9559 H   0  0  0  0  0  0  0  0  0  0  0  0
  -37.9706   60.9400   60.5070 H   0  0  0  0  0  0  0  0  0  0  0  0
 12 13  1  0  0  0
  9 10  2  0  0  0
  9  8  1  0  0  0
  6  7  2  0  0  0
  6  8  1  0  0  0
 10 11  1  0  0  0
  7  5  1  0  0  0
 16 17  2  0  0  0
 16 18  1  0  0  0
 17 19  1  0  0  0
 18 21  2  0  0  0
 13 11  1  0  0  0
  5  4  1  0  0  0
  4  3  1  0  0  0
  3  2  1  0  0  0
  2  1  1  0  0  0
  1 14  1  0  0  0
 14 15  1  0  0  0
 15 21  1  0  0  0
 19 20  2  0  0  0
 19 22  1  0  0  0
 20 21  1  0  0  0
 20 23  1  0  0  0
 22 24  1  0  0  0
 23 25  1  0  0  0
M  END
> <minimizedAffinity>
-6.79763

> <CNNscore>
0.2660958171

> <CNNaffinity>
6.1082849503

> <CNN_VS>
1.6253890991

> <CNNaffinity_variance>
0.1727429181

$$$$
/media/chris/experiments/cd1a-new-docking/inputs/ligands/5j1a_ligand.pdb


 25 25  0  0  0  0  0  0  0  0999 V2000
  -46.5169   59.8376   64.9972 C   0  0  0  0  0  0  0  0  0  0  0  0
  -46.5800   58.3576   64.5914 C   0  0  0  0  0  0  0  0  0  0  0  0
  -47.4154   57.5687   65.5903 C   0  0  0  0  0  0  0  0  0  0  0  0
  -48.3300   58.5259   66.3553 C   0  0  0  0  0  0  0  0  0  0  0  0
  -49.7939   58.1470   66.1322 C   0  0  0  0  0  0  0  0  0  0  0  0
  -50.6200   59.5943   64.0588 C   0  0  0  0  0  0  0  0  0  0  0  0
  -50.5166   59.3775   65.5812 C   0  0  0  0  0  0  0  0  0  0  0  0
  -49.9115   58.6738   63.0531 C   0  0  0  0  0  0  0  0  0  0  0  0
  -50.2399   59.1992   61.6479 C   0  0  0  0  0  0  0  0  0  0  0  0
  -50.4265   58.2486   60.4411 C   0  0  0  0  0  0  0  0  0  0  0  0
  -50.3283   56.7177   60.5899 C   0  0  0  0  0  0  0  0  0  0  0  0
  -48.5878   55.9582   58.9100 C   0  0  0  0  0  0  0  0  0  0  0  0
  -48.8602   56.3278   60.3701 C   0  0  0  0  0  0  0  0  0  0  0  0
  -47.0308   60.7990   63.8942 C   0  0  0  0  0  0  0  0  0  0  0  0
  -45.9815   61.0765   62.7918 C   0  0  0  0  0  0  0  0  0  0  0  0
  -47.8009   60.8304   59.5692 C   0  0  0  0  0  0  0  0  0  0  0  0
  -47.2461   59.6742   59.0047 C   0  0  0  0  0  0  0  0  0  0  0  0
  -47.3741   61.2794   60.8247 C   0  0  0  0  0  0  0  0  0  0  0  0
  -46.2623   58.9865   59.7150 C   0  0  0  0  0  0  0  0  0  0  0  0
  -45.8365   59.4436   60.9611 C   0  0  0  0  0  0  0  0  0  0  0  0
  -46.3636   60.6120   61.5259 C   0  0  0  0  0  0  0  0  0  0  0  0
  -45.6780   57.8594   59.2400 O   0  0  0  0  0  0  0  0  0  0  0  0
  -44.8660   58.7428   61.6160 O   0  0  0  0  0  0  0  0  0  0  0  0
  -45.9327   57.5151   58.4066 H   0  0  0  0  0  0  0  0  0  0  0  0
  -44.5151   57.9615   61.2360 H   0  0  0  0  0  0  0  0  0  0  0  0
 12 13  1  0  0  0
  9 10  2  0  0  0
  9  8  1  0  0  0
  6  7  2  0  0  0
  6  8  1  0  0  0
 10 11  1  0  0  0
  7  5  1  0  0  0
 16 17  2  0  0  0
 16 18  1  0  0  0
 17 19  1  0  0  0
 18 21  2  0  0  0
 13 11  1  0  0  0
  5  4  1  0  0  0
  4  3  1  0  0  0
  3  2  1  0  0  0
  2  1  1  0  0  0
  1 14  1  0  0  0
 14 15  1  0  0  0
 15 21  1  0  0  0
 19 20  2  0  0  0
 19 22  1  0  0  0
 20 21  1  0  0  0
 20 23  1  0  0  0
 22 24  1  0  0  0
 23 25  1  0  0  0
M  END
> <minimizedAffinity>
-7.08490

> <CNNscore>
0.2507516742

> <CNNaffinity>
6.2787294388

> <CNN_VS>
1.5744019747

> <CNNaffinity_variance>
0.2270799875

$$$$
