/media/chris/experiments/cd1a-new-docking/inputs/ligands/5j1a_ligand.pdb


 25 25  0  0  0  0  0  0  0  0999 V2000
  -47.6708   61.3124   60.9298 C   0  0  0  0  0  0  0  0  0  0  0  0
  -46.2122   61.4443   61.3925 C   0  0  0  0  0  0  0  0  0  0  0  0
  -45.5780   60.0688   61.5469 C   0  0  0  0  0  0  0  0  0  0  0  0
  -44.7940   60.0156   62.8586 C   0  0  0  0  0  0  0  0  0  0  0  0
  -45.4984   60.8508   63.9275 C   0  0  0  0  0  0  0  0  0  0  0  0
  -46.6632   59.9181   66.1297 C   0  0  0  0  0  0  0  0  0  0  0  0
  -45.4086   60.0886   65.2508 C   0  0  0  0  0  0  0  0  0  0  0  0
  -47.9986   60.5961   65.7869 C   0  0  0  0  0  0  0  0  0  0  0  0
  -49.1077   59.7890   66.4776 C   0  0  0  0  0  0  0  0  0  0  0  0
  -50.4396   59.4518   65.7657 C   0  0  0  0  0  0  0  0  0  0  0  0
  -50.7130   59.8771   64.3096 C   0  0  0  0  0  0  0  0  0  0  0  0
  -50.8165   58.7301   62.0509 C   0  0  0  0  0  0  0  0  0  0  0  0
  -50.0900   58.8133   63.3954 C   0  0  0  0  0  0  0  0  0  0  0  0
  -47.8082   60.8380   59.4598 C   0  0  0  0  0  0  0  0  0  0  0  0
  -48.6378   59.5405   59.3142 C   0  0  0  0  0  0  0  0  0  0  0  0
  -46.2029   57.8951   57.0516 C   0  0  0  0  0  0  0  0  0  0  0  0
  -46.6689   56.5740   57.0271 C   0  0  0  0  0  0  0  0  0  0  0  0
  -46.8675   58.8658   57.8106 C   0  0  0  0  0  0  0  0  0  0  0  0
  -47.8007   56.2480   57.7742 C   0  0  0  0  0  0  0  0  0  0  0  0
  -48.4530   57.2176   58.5340 C   0  0  0  0  0  0  0  0  0  0  0  0
  -47.9832   58.5361   58.5884 C   0  0  0  0  0  0  0  0  0  0  0  0
  -48.3160   54.9944   57.8019 O   0  0  0  0  0  0  0  0  0  0  0  0
  -49.5517   56.8508   59.2551 O   0  0  0  0  0  0  0  0  0  0  0  0
  -47.9104   54.3102   57.3064 H   0  0  0  0  0  0  0  0  0  0  0  0
  -49.8639   55.9682   59.2169 H   0  0  0  0  0  0  0  0  0  0  0  0
 12 13  1  0  0  0
  9 10  2  0  0  0
  9  8  1  0  0  0
  6  7  2  0  0  0
  6  8  1  0  0  0
 10 11  1  0  0  0
  7  5  1  0  0  0
 16 17  2  0  0  0
 16 18  1  0  0  0
 17 19  1  0  0  0
 18 21  2  0  0  0
 13 11  1  0  0  0
  5  4  1  0  0  0
  4  3  1  0  0  0
  3  2  1  0  0  0
  2  1  1  0  0  0
  1 14  1  0  0  0
 14 15  1  0  0  0
 15 21  1  0  0  0
 19 20  2  0  0  0
 19 22  1  0  0  0
 20 21  1  0  0  0
 20 23  1  0  0  0
 22 24  1  0  0  0
 23 25  1  0  0  0
M  END
> <minimizedAffinity>
-8.06642

> <CNNscore>
0.6435889006

> <CNNaffinity>
6.9097032547

> <CNN_VS>
4.4470081329

> <CNNaffinity_variance>
0.3549829423

$$$$
/media/chris/experiments/cd1a-new-docking/inputs/ligands/5j1a_ligand.pdb


 25 25  0  0  0  0  0  0  0  0999 V2000
  -50.8149   58.2485   61.5372 C   0  0  0  0  0  0  0  0  0  0  0  0
  -50.4986   59.5941   62.2067 C   0  0  0  0  0  0  0  0  0  0  0  0
  -50.4892   59.4439   63.7218 C   0  0  0  0  0  0  0  0  0  0  0  0
  -49.5384   58.3125   64.1139 C   0  0  0  0  0  0  0  0  0  0  0  0
  -49.5043   58.1561   65.6341 C   0  0  0  0  0  0  0  0  0  0  0  0
  -48.1545   60.2732   66.5129 C   0  0  0  0  0  0  0  0  0  0  0  0
  -49.4935   59.5571   66.2481 C   0  0  0  0  0  0  0  0  0  0  0  0
  -46.8008   59.5802   66.2946 C   0  0  0  0  0  0  0  0  0  0  0  0
  -46.5584   58.6666   67.5050 C   0  0  0  0  0  0  0  0  0  0  0  0
  -46.2204   57.1652   67.3431 C   0  0  0  0  0  0  0  0  0  0  0  0
  -46.0730   56.5106   65.9555 C   0  0  0  0  0  0  0  0  0  0  0  0
  -44.4305   57.3596   64.2206 C   0  0  0  0  0  0  0  0  0  0  0  0
  -44.5966   56.6200   65.5502 C   0  0  0  0  0  0  0  0  0  0  0  0
  -50.0396   58.0243   60.2130 C   0  0  0  0  0  0  0  0  0  0  0  0
  -48.6135   57.4655   60.4300 C   0  0  0  0  0  0  0  0  0  0  0  0
  -46.4608   58.5936   57.6285 C   0  0  0  0  0  0  0  0  0  0  0  0
  -46.3512   57.4311   56.8540 C   0  0  0  0  0  0  0  0  0  0  0  0
  -47.2159   58.5896   58.8074 C   0  0  0  0  0  0  0  0  0  0  0  0
  -47.0039   56.2755   57.2827 C   0  0  0  0  0  0  0  0  0  0  0  0
  -47.7476   56.2764   58.4615 C   0  0  0  0  0  0  0  0  0  0  0  0
  -47.8445   57.4238   59.2591 C   0  0  0  0  0  0  0  0  0  0  0  0
  -46.9497   55.1117   56.5897 O   0  0  0  0  0  0  0  0  0  0  0  0
  -48.3625   55.1204   58.8455 O   0  0  0  0  0  0  0  0  0  0  0  0
  -46.4615   55.0641   55.7913 H   0  0  0  0  0  0  0  0  0  0  0  0
  -48.2961   54.3543   58.3102 H   0  0  0  0  0  0  0  0  0  0  0  0
 12 13  1  0  0  0
  9 10  2  0  0  0
  9  8  1  0  0  0
  6  7  2  0  0  0
  6  8  1  0  0  0
 10 11  1  0  0  0
  7  5  1  0  0  0
 16 17  2  0  0  0
 16 18  1  0  0  0
 17 19  1  0  0  0
 18 21  2  0  0  0
 13 11  1  0  0  0
  5  4  1  0  0  0
  4  3  1  0  0  0
  3  2  1  0  0  0
  2  1  1  0  0  0
  1 14  1  0  0  0
 14 15  1  0  0  0
 15 21  1  0  0  0
 19 20  2  0  0  0
 19 22  1  0  0  0
 20 21  1  0  0  0
 20 23  1  0  0  0
 22 24  1  0  0  0
 23 25  1  0  0  0
M  END
> <minimizedAffinity>
-8.49452

> <CNNscore>
0.5586674213

> <CNNaffinity>
6.9093332291

> <CNN_VS>
3.8600194454

> <CNNaffinity_variance>
0.1630330980

$$$$
/media/chris/experiments/cd1a-new-docking/inputs/ligands/5j1a_ligand.pdb


 25 25  0  0  0  0  0  0  0  0999 V2000
  -48.2951   56.8312   57.8837 C   0  0  0  0  0  0  0  0  0  0  0  0
  -49.6677   57.5190   57.8415 C   0  0  0  0  0  0  0  0  0  0  0  0
  -50.0886   57.9499   59.2399 C   0  0  0  0  0  0  0  0  0  0  0  0
  -49.4527   57.0173   60.2714 C   0  0  0  0  0  0  0  0  0  0  0  0
  -49.5895   57.6110   61.6733 C   0  0  0  0  0  0  0  0  0  0  0  0
  -50.7456   59.7736   62.7042 C   0  0  0  0  0  0  0  0  0  0  0  0
  -50.6884   58.6740   61.6256 C   0  0  0  0  0  0  0  0  0  0  0  0
  -49.8013   59.7785   63.9161 C   0  0  0  0  0  0  0  0  0  0  0  0
  -50.4714   58.9431   65.0168 C   0  0  0  0  0  0  0  0  0  0  0  0
  -49.6493   58.0905   66.0127 C   0  0  0  0  0  0  0  0  0  0  0  0
  -48.1087   58.0604   65.9778 C   0  0  0  0  0  0  0  0  0  0  0  0
  -46.1527   56.4481   66.0320 C   0  0  0  0  0  0  0  0  0  0  0  0
  -47.6768   56.5881   66.0155 C   0  0  0  0  0  0  0  0  0  0  0  0
  -47.1689   57.6673   57.2220 C   0  0  0  0  0  0  0  0  0  0  0  0
  -46.0894   58.1363   58.2259 C   0  0  0  0  0  0  0  0  0  0  0  0
  -47.7720   61.1203   59.6471 C   0  0  0  0  0  0  0  0  0  0  0  0
  -47.4776   61.0030   61.0119 C   0  0  0  0  0  0  0  0  0  0  0  0
  -47.3024   60.1652   58.7375 C   0  0  0  0  0  0  0  0  0  0  0  0
  -46.7141   59.9182   61.4426 C   0  0  0  0  0  0  0  0  0  0  0  0
  -46.2564   58.9667   60.5327 C   0  0  0  0  0  0  0  0  0  0  0  0
  -46.5648   59.0572   59.1693 C   0  0  0  0  0  0  0  0  0  0  0  0
  -46.3839   59.7341   62.7445 O   0  0  0  0  0  0  0  0  0  0  0  0
  -45.5193   57.9182   61.0009 O   0  0  0  0  0  0  0  0  0  0  0  0
  -46.6697   60.3485   63.3917 H   0  0  0  0  0  0  0  0  0  0  0  0
  -45.3144   57.8600   61.9133 H   0  0  0  0  0  0  0  0  0  0  0  0
 12 13  1  0  0  0
  9 10  2  0  0  0
  9  8  1  0  0  0
  6  7  2  0  0  0
  6  8  1  0  0  0
 10 11  1  0  0  0
  7  5  1  0  0  0
 16 17  2  0  0  0
 16 18  1  0  0  0
 17 19  1  0  0  0
 18 21  2  0  0  0
 13 11  1  0  0  0
  5  4  1  0  0  0
  4  3  1  0  0  0
  3  2  1  0  0  0
  2  1  1  0  0  0
  1 14  1  0  0  0
 14 15  1  0  0  0
 15 21  1  0  0  0
 19 20  2  0  0  0
 19 22  1  0  0  0
 20 21  1  0  0  0
 20 23  1  0  0  0
 22 24  1  0  0  0
 23 25  1  0  0  0
M  END
> <minimizedAffinity>
-7.90426

> <CNNscore>
0.5480170250

> <CNNaffinity>
6.7298493385

> <CNN_VS>
3.6880719662

> <CNNaffinity_variance>
0.1195502281

$$$$
/media/chris/experiments/cd1a-new-docking/inputs/ligands/5j1a_ligand.pdb


 25 25  0  0  0  0  0  0  0  0999 V2000
  -50.0482   59.1801   65.0129 C   0  0  0  0  0  0  0  0  0  0  0  0
  -51.0084   60.1678   64.3336 C   0  0  0  0  0  0  0  0  0  0  0  0
  -51.0882   59.8877   62.8392 C   0  0  0  0  0  0  0  0  0  0  0  0
  -50.4799   58.5156   62.5467 C   0  0  0  0  0  0  0  0  0  0  0  0
  -49.1371   58.6758   61.8343 C   0  0  0  0  0  0  0  0  0  0  0  0
  -49.7070   57.9711   59.3333 C   0  0  0  0  0  0  0  0  0  0  0  0
  -49.4215   59.0637   60.3822 C   0  0  0  0  0  0  0  0  0  0  0  0
  -49.5977   56.4744   59.6629 C   0  0  0  0  0  0  0  0  0  0  0  0
  -48.1032   56.1472   59.7965 C   0  0  0  0  0  0  0  0  0  0  0  0
  -47.2491   55.7094   58.5827 C   0  0  0  0  0  0  0  0  0  0  0  0
  -47.8433   55.6118   57.1639 C   0  0  0  0  0  0  0  0  0  0  0  0
  -46.2523   57.5816   57.0340 C   0  0  0  0  0  0  0  0  0  0  0  0
  -47.4846   56.9085   56.4252 C   0  0  0  0  0  0  0  0  0  0  0  0
  -49.4461   59.7207   66.3359 C   0  0  0  0  0  0  0  0  0  0  0  0
  -48.0280   60.3137   66.1614 C   0  0  0  0  0  0  0  0  0  0  0  0
  -45.7725   58.2596   64.0522 C   0  0  0  0  0  0  0  0  0  0  0  0
  -45.1910   57.3993   64.9929 C   0  0  0  0  0  0  0  0  0  0  0  0
  -46.7122   59.2163   64.4543 C   0  0  0  0  0  0  0  0  0  0  0  0
  -45.5637   57.5188   66.3316 C   0  0  0  0  0  0  0  0  0  0  0  0
  -46.4940   58.4788   66.7263 C   0  0  0  0  0  0  0  0  0  0  0  0
  -47.0640   59.3624   65.8009 C   0  0  0  0  0  0  0  0  0  0  0  0
  -45.0499   56.7238   67.3020 O   0  0  0  0  0  0  0  0  0  0  0  0
  -46.8224   58.5641   68.0479 O   0  0  0  0  0  0  0  0  0  0  0  0
  -44.4211   56.0644   67.0832 H   0  0  0  0  0  0  0  0  0  0  0  0
  -46.4397   57.9718   68.6649 H   0  0  0  0  0  0  0  0  0  0  0  0
 12 13  1  0  0  0
  9 10  2  0  0  0
  9  8  1  0  0  0
  6  7  2  0  0  0
  6  8  1  0  0  0
 10 11  1  0  0  0
  7  5  1  0  0  0
 16 17  2  0  0  0
 16 18  1  0  0  0
 17 19  1  0  0  0
 18 21  2  0  0  0
 13 11  1  0  0  0
  5  4  1  0  0  0
  4  3  1  0  0  0
  3  2  1  0  0  0
  2  1  1  0  0  0
  1 14  1  0  0  0
 14 15  1  0  0  0
 15 21  1  0  0  0
 19 20  2  0  0  0
 19 22  1  0  0  0
 20 21  1  0  0  0
 20 23  1  0  0  0
 22 24  1  0  0  0
 23 25  1  0  0  0
M  END
> <minimizedAffinity>
-8.17120

> <CNNscore>
0.5277494788

> <CNNaffinity>
6.5652437210

> <CNN_VS>
3.4648039341

> <CNNaffinity_variance>
0.2267178297

$$$$
/media/chris/experiments/cd1a-new-docking/inputs/ligands/5j1a_ligand.pdb


 25 25  0  0  0  0  0  0  0  0999 V2000
  -47.1302   59.7490   58.5778 C   0  0  0  0  0  0  0  0  0  0  0  0
  -46.3550   58.4874   58.9855 C   0  0  0  0  0  0  0  0  0  0  0  0
  -46.3059   57.4978   57.8295 C   0  0  0  0  0  0  0  0  0  0  0  0
  -47.1235   56.2566   58.1886 C   0  0  0  0  0  0  0  0  0  0  0  0
  -47.9014   56.4945   59.4827 C   0  0  0  0  0  0  0  0  0  0  0  0
  -50.3355   57.3303   60.1558 C   0  0  0  0  0  0  0  0  0  0  0  0
  -49.3621   56.7535   59.1093 C   0  0  0  0  0  0  0  0  0  0  0  0
  -49.9248   57.5480   61.6202 C   0  0  0  0  0  0  0  0  0  0  0  0
  -50.6238   58.8278   62.1020 C   0  0  0  0  0  0  0  0  0  0  0  0
  -50.5861   59.2734   63.5834 C   0  0  0  0  0  0  0  0  0  0  0  0
  -49.8139   58.4756   64.6525 C   0  0  0  0  0  0  0  0  0  0  0  0
  -48.8844   59.9550   66.4898 C   0  0  0  0  0  0  0  0  0  0  0  0
  -50.0874   59.1402   66.0087 C   0  0  0  0  0  0  0  0  0  0  0  0
  -48.1469   60.2185   59.6505 C   0  0  0  0  0  0  0  0  0  0  0  0
  -47.6726   61.4652   60.4340 C   0  0  0  0  0  0  0  0  0  0  0  0
  -46.4623   59.7867   63.5118 C   0  0  0  0  0  0  0  0  0  0  0  0
  -45.3291   60.5447   63.8352 C   0  0  0  0  0  0  0  0  0  0  0  0
  -47.2292   60.1062   62.3850 C   0  0  0  0  0  0  0  0  0  0  0  0
  -44.9816   61.6160   63.0125 C   0  0  0  0  0  0  0  0  0  0  0  0
  -45.7450   61.9237   61.8876 C   0  0  0  0  0  0  0  0  0  0  0  0
  -46.8652   61.1589   61.5378 C   0  0  0  0  0  0  0  0  0  0  0  0
  -43.9026   62.3992   63.2574 O   0  0  0  0  0  0  0  0  0  0  0  0
  -45.3624   62.9760   61.1077 O   0  0  0  0  0  0  0  0  0  0  0  0
  -43.3601   62.2297   64.0024 H   0  0  0  0  0  0  0  0  0  0  0  0
  -44.6128   63.4860   61.3440 H   0  0  0  0  0  0  0  0  0  0  0  0
 12 13  1  0  0  0
  9 10  2  0  0  0
  9  8  1  0  0  0
  6  7  2  0  0  0
  6  8  1  0  0  0
 10 11  1  0  0  0
  7  5  1  0  0  0
 16 17  2  0  0  0
 16 18  1  0  0  0
 17 19  1  0  0  0
 18 21  2  0  0  0
 13 11  1  0  0  0
  5  4  1  0  0  0
  4  3  1  0  0  0
  3  2  1  0  0  0
  2  1  1  0  0  0
  1 14  1  0  0  0
 14 15  1  0  0  0
 15 21  1  0  0  0
 19 20  2  0  0  0
 19 22  1  0  0  0
 20 21  1  0  0  0
 20 23  1  0  0  0
 22 24  1  0  0  0
 23 25  1  0  0  0
M  END
> <minimizedAffinity>
-7.78285

> <CNNscore>
0.5027707815

> <CNNaffinity>
6.5018777847

> <CNN_VS>
3.2689542770

> <CNNaffinity_variance>
0.0392640606

$$$$
/media/chris/experiments/cd1a-new-docking/inputs/ligands/5j1a_ligand.pdb


 25 25  0  0  0  0  0  0  0  0999 V2000
  -46.6680   59.3135   58.5942 C   0  0  0  0  0  0  0  0  0  0  0  0
  -46.8839   58.6160   57.2429 C   0  0  0  0  0  0  0  0  0  0  0  0
  -46.2672   57.2240   57.2597 C   0  0  0  0  0  0  0  0  0  0  0  0
  -47.3040   56.2038   56.7882 C   0  0  0  0  0  0  0  0  0  0  0  0
  -48.6015   56.3671   57.5795 C   0  0  0  0  0  0  0  0  0  0  0  0
  -49.2268   56.4760   60.1628 C   0  0  0  0  0  0  0  0  0  0  0  0
  -48.3204   55.9614   59.0274 C   0  0  0  0  0  0  0  0  0  0  0  0
  -50.3494   57.4948   59.9133 C   0  0  0  0  0  0  0  0  0  0  0  0
  -49.6829   58.8628   59.7067 C   0  0  0  0  0  0  0  0  0  0  0  0
  -49.6820   59.9482   60.8097 C   0  0  0  0  0  0  0  0  0  0  0  0
  -50.3198   59.7032   62.1913 C   0  0  0  0  0  0  0  0  0  0  0  0
  -48.9240   58.0960   63.5686 C   0  0  0  0  0  0  0  0  0  0  0  0
  -49.1773   59.5613   63.2063 C   0  0  0  0  0  0  0  0  0  0  0  0
  -45.8987   58.4408   59.6196 C   0  0  0  0  0  0  0  0  0  0  0  0
  -46.2047   58.8162   61.0888 C   0  0  0  0  0  0  0  0  0  0  0  0
  -45.5115   62.3973   61.7602 C   0  0  0  0  0  0  0  0  0  0  0  0
  -44.2154   62.3525   62.2906 C   0  0  0  0  0  0  0  0  0  0  0  0
  -46.1548   61.2186   61.3640 C   0  0  0  0  0  0  0  0  0  0  0  0
  -43.5852   61.1149   62.4182 C   0  0  0  0  0  0  0  0  0  0  0  0
  -44.2345   59.9445   62.0291 C   0  0  0  0  0  0  0  0  0  0  0  0
  -45.5397   59.9715   61.5214 C   0  0  0  0  0  0  0  0  0  0  0  0
  -42.3321   60.9865   62.9191 O   0  0  0  0  0  0  0  0  0  0  0  0
  -43.5818   58.7557   62.1796 O   0  0  0  0  0  0  0  0  0  0  0  0
  -41.8572   61.7462   63.1936 H   0  0  0  0  0  0  0  0  0  0  0  0
  -42.7087   58.7403   62.5193 H   0  0  0  0  0  0  0  0  0  0  0  0
 12 13  1  0  0  0
  9 10  2  0  0  0
  9  8  1  0  0  0
  6  7  2  0  0  0
  6  8  1  0  0  0
 10 11  1  0  0  0
  7  5  1  0  0  0
 16 17  2  0  0  0
 16 18  1  0  0  0
 17 19  1  0  0  0
 18 21  2  0  0  0
 13 11  1  0  0  0
  5  4  1  0  0  0
  4  3  1  0  0  0
  3  2  1  0  0  0
  2  1  1  0  0  0
  1 14  1  0  0  0
 14 15  1  0  0  0
 15 21  1  0  0  0
 19 20  2  0  0  0
 19 22  1  0  0  0
 20 21  1  0  0  0
 20 23  1  0  0  0
 22 24  1  0  0  0
 23 25  1  0  0  0
M  END
> <minimizedAffinity>
-7.64940

> <CNNscore>
0.4047619104

> <CNNaffinity>
6.2815933228

> <CNN_VS>
2.5425496101

> <CNNaffinity_variance>
0.1078234687

$$$$
/media/chris/experiments/cd1a-new-docking/inputs/ligands/5j1a_ligand.pdb


 25 25  0  0  0  0  0  0  0  0999 V2000
  -50.6048   59.2221   65.1483 C   0  0  0  0  0  0  0  0  0  0  0  0
  -50.2032   59.8828   63.8212 C   0  0  0  0  0  0  0  0  0  0  0  0
  -50.9422   59.2326   62.6596 C   0  0  0  0  0  0  0  0  0  0  0  0
  -50.1779   57.9892   62.2040 C   0  0  0  0  0  0  0  0  0  0  0  0
  -50.6283   57.5782   60.8023 C   0  0  0  0  0  0  0  0  0  0  0  0
  -48.9714   56.5547   58.9903 C   0  0  0  0  0  0  0  0  0  0  0  0
  -49.7187   56.4412   60.3335 C   0  0  0  0  0  0  0  0  0  0  0  0
  -49.1980   57.7296   58.0266 C   0  0  0  0  0  0  0  0  0  0  0  0
  -47.8867   57.9444   57.2567 C   0  0  0  0  0  0  0  0  0  0  0  0
  -46.7034   58.7382   57.8603 C   0  0  0  0  0  0  0  0  0  0  0  0
  -46.7620   59.3276   59.2833 C   0  0  0  0  0  0  0  0  0  0  0  0
  -48.6370   60.7905   60.1621 C   0  0  0  0  0  0  0  0  0  0  0  0
  -47.4609   60.6907   59.1877 C   0  0  0  0  0  0  0  0  0  0  0  0
  -49.3933   58.8678   66.0491 C   0  0  0  0  0  0  0  0  0  0  0  0
  -48.3952   57.8985   65.3729 C   0  0  0  0  0  0  0  0  0  0  0  0
  -45.3166   59.9598   65.5417 C   0  0  0  0  0  0  0  0  0  0  0  0
  -44.3414   59.0076   65.8666 C   0  0  0  0  0  0  0  0  0  0  0  0
  -46.6531   59.5762   65.3784 C   0  0  0  0  0  0  0  0  0  0  0  0
  -44.7296   57.6776   66.0266 C   0  0  0  0  0  0  0  0  0  0  0  0
  -46.0633   57.3039   65.8703 C   0  0  0  0  0  0  0  0  0  0  0  0
  -47.0529   58.2491   65.5711 C   0  0  0  0  0  0  0  0  0  0  0  0
  -43.8476   56.6964   66.3381 O   0  0  0  0  0  0  0  0  0  0  0  0
  -46.3977   55.9925   66.0441 O   0  0  0  0  0  0  0  0  0  0  0  0
  -42.9404   56.9010   66.4528 H   0  0  0  0  0  0  0  0  0  0  0  0
  -45.7339   55.3622   66.2441 H   0  0  0  0  0  0  0  0  0  0  0  0
 12 13  1  0  0  0
  9 10  2  0  0  0
  9  8  1  0  0  0
  6  7  2  0  0  0
  6  8  1  0  0  0
 10 11  1  0  0  0
  7  5  1  0  0  0
 16 17  2  0  0  0
 16 18  1  0  0  0
 17 19  1  0  0  0
 18 21  2  0  0  0
 13 11  1  0  0  0
  5  4  1  0  0  0
  4  3  1  0  0  0
  3  2  1  0  0  0
  2  1  1  0  0  0
  1 14  1  0  0  0
 14 15  1  0  0  0
 15 21  1  0  0  0
 19 20  2  0  0  0
 19 22  1  0  0  0
 20 21  1  0  0  0
 20 23  1  0  0  0
 22 24  1  0  0  0
 23 25  1  0  0  0
M  END
> <minimizedAffinity>
-8.20494

> <CNNscore>
0.4016913176

> <CNNaffinity>
6.4893064499

> <CNN_VS>
2.6066980362

> <CNNaffinity_variance>
0.2283277810

$$$$
/media/chris/experiments/cd1a-new-docking/inputs/ligands/5j1a_ligand.pdb


 25 25  0  0  0  0  0  0  0  0999 V2000
  -46.0033   57.1739   59.1148 C   0  0  0  0  0  0  0  0  0  0  0  0
  -46.2460   58.0388   57.8690 C   0  0  0  0  0  0  0  0  0  0  0  0
  -47.5038   58.8789   58.0429 C   0  0  0  0  0  0  0  0  0  0  0  0
  -48.7329   57.9715   57.9806 C   0  0  0  0  0  0  0  0  0  0  0  0
  -49.7345   58.3661   59.0659 C   0  0  0  0  0  0  0  0  0  0  0  0
  -49.6335   60.0305   61.1386 C   0  0  0  0  0  0  0  0  0  0  0  0
  -49.2591   59.6819   59.6847 C   0  0  0  0  0  0  0  0  0  0  0  0
  -50.5820   59.1533   61.9702 C   0  0  0  0  0  0  0  0  0  0  0  0
  -51.1762   60.0446   63.0707 C   0  0  0  0  0  0  0  0  0  0  0  0
  -50.7693   59.8928   64.5560 C   0  0  0  0  0  0  0  0  0  0  0  0
  -49.7173   58.8615   65.0090 C   0  0  0  0  0  0  0  0  0  0  0  0
  -47.8904   60.5410   64.4896 C   0  0  0  0  0  0  0  0  0  0  0  0
  -48.5155   59.6419   65.5589 C   0  0  0  0  0  0  0  0  0  0  0  0
  -46.3055   57.9135   60.4440 C   0  0  0  0  0  0  0  0  0  0  0  0
  -45.0297   58.2990   61.2294 C   0  0  0  0  0  0  0  0  0  0  0  0
  -45.9563   61.8837   61.4444 C   0  0  0  0  0  0  0  0  0  0  0  0
  -44.8475   62.4364   62.0988 C   0  0  0  0  0  0  0  0  0  0  0  0
  -45.9999   60.5134   61.1609 C   0  0  0  0  0  0  0  0  0  0  0  0
  -43.7958   61.5957   62.4629 C   0  0  0  0  0  0  0  0  0  0  0  0
  -43.8492   60.2310   62.1846 C   0  0  0  0  0  0  0  0  0  0  0  0
  -44.9625   59.6606   61.5543 C   0  0  0  0  0  0  0  0  0  0  0  0
  -42.6874   62.0521   63.0961 O   0  0  0  0  0  0  0  0  0  0  0  0
  -42.8004   59.4461   62.5664 O   0  0  0  0  0  0  0  0  0  0  0  0
  -42.6078   62.9624   63.3035 H   0  0  0  0  0  0  0  0  0  0  0  0
  -42.0569   59.8301   62.9878 H   0  0  0  0  0  0  0  0  0  0  0  0
 12 13  1  0  0  0
  9 10  2  0  0  0
  9  8  1  0  0  0
  6  7  2  0  0  0
  6  8  1  0  0  0
 10 11  1  0  0  0
  7  5  1  0  0  0
 16 17  2  0  0  0
 16 18  1  0  0  0
 17 19  1  0  0  0
 18 21  2  0  0  0
 13 11  1  0  0  0
  5  4  1  0  0  0
  4  3  1  0  0  0
  3  2  1  0  0  0
  2  1  1  0  0  0
  1 14  1  0  0  0
 14 15  1  0  0  0
 15 21  1  0  0  0
 19 20  2  0  0  0
 19 22  1  0  0  0
 20 21  1  0  0  0
 20 23  1  0  0  0
 22 24  1  0  0  0
 23 25  1  0  0  0
M  END
> <minimizedAffinity>
-7.92528

> <CNNscore>
0.3639800549

> <CNNaffinity>
6.2211427689

> <CNN_VS>
2.2643718719

> <CNNaffinity_variance>
0.1730356365

$$$$
/media/chris/experiments/cd1a-new-docking/inputs/ligands/5j1a_ligand.pdb


 25 25  0  0  0  0  0  0  0  0999 V2000
  -49.1109   58.9774   65.7895 C   0  0  0  0  0  0  0  0  0  0  0  0
  -50.4258   58.7570   65.0269 C   0  0  0  0  0  0  0  0  0  0  0  0
  -50.7691   59.9850   64.1950 C   0  0  0  0  0  0  0  0  0  0  0  0
  -51.1600   59.5484   62.7827 C   0  0  0  0  0  0  0  0  0  0  0  0
  -50.1552   58.5272   62.2500 C   0  0  0  0  0  0  0  0  0  0  0  0
  -50.4557   57.7602   59.7206 C   0  0  0  0  0  0  0  0  0  0  0  0
  -50.8693   57.6710   61.2026 C   0  0  0  0  0  0  0  0  0  0  0  0
  -49.4194   58.7791   59.2220 C   0  0  0  0  0  0  0  0  0  0  0  0
  -48.8171   58.2165   57.9262 C   0  0  0  0  0  0  0  0  0  0  0  0
  -47.2928   58.2277   57.6594 C   0  0  0  0  0  0  0  0  0  0  0  0
  -46.2904   58.7721   58.6959 C   0  0  0  0  0  0  0  0  0  0  0  0
  -45.1360   58.1313   60.8604 C   0  0  0  0  0  0  0  0  0  0  0  0
  -46.0212   57.6502   59.7082 C   0  0  0  0  0  0  0  0  0  0  0  0
  -48.1909   60.0391   65.1327 C   0  0  0  0  0  0  0  0  0  0  0  0
  -47.2016   59.4363   64.1075 C   0  0  0  0  0  0  0  0  0  0  0  0
  -46.6754   61.7111   61.2259 C   0  0  0  0  0  0  0  0  0  0  0  0
  -45.4144   62.2543   61.5052 C   0  0  0  0  0  0  0  0  0  0  0  0
  -47.2517   60.7771   62.0952 C   0  0  0  0  0  0  0  0  0  0  0  0
  -44.7513   61.8495   62.6635 C   0  0  0  0  0  0  0  0  0  0  0  0
  -45.3343   60.9252   63.5287 C   0  0  0  0  0  0  0  0  0  0  0  0
  -46.6052   60.3935   63.2756 C   0  0  0  0  0  0  0  0  0  0  0  0
  -43.5285   62.3254   63.0039 O   0  0  0  0  0  0  0  0  0  0  0  0
  -44.6518   60.5646   64.6540 O   0  0  0  0  0  0  0  0  0  0  0  0
  -43.0982   62.9487   62.4522 H   0  0  0  0  0  0  0  0  0  0  0  0
  -43.8018   60.9217   64.8209 H   0  0  0  0  0  0  0  0  0  0  0  0
 12 13  1  0  0  0
  9 10  2  0  0  0
  9  8  1  0  0  0
  6  7  2  0  0  0
  6  8  1  0  0  0
 10 11  1  0  0  0
  7  5  1  0  0  0
 16 17  2  0  0  0
 16 18  1  0  0  0
 17 19  1  0  0  0
 18 21  2  0  0  0
 13 11  1  0  0  0
  5  4  1  0  0  0
  4  3  1  0  0  0
  3  2  1  0  0  0
  2  1  1  0  0  0
  1 14  1  0  0  0
 14 15  1  0  0  0
 15 21  1  0  0  0
 19 20  2  0  0  0
 19 22  1  0  0  0
 20 21  1  0  0  0
 20 23  1  0  0  0
 22 24  1  0  0  0
 23 25  1  0  0  0
M  END
> <minimizedAffinity>
-7.63936

> <CNNscore>
0.3529489040

> <CNNaffinity>
6.1634087563

> <CNN_VS>
2.1753683090

> <CNNaffinity_variance>
0.2265685499

$$$$
