/media/chris/experiments/cd1a-new-docking/inputs/ligands/5j1a_ligand.pdb


 25 25  0  0  0  0  0  0  0  0999 V2000
  -47.9531   56.5678   58.0120 C   0  0  0  0  0  0  0  0  0  0  0  0
  -49.2697   57.3164   57.7567 C   0  0  0  0  0  0  0  0  0  0  0  0
  -49.9353   57.6843   59.0757 C   0  0  0  0  0  0  0  0  0  0  0  0
  -49.4027   56.7754   60.1840 C   0  0  0  0  0  0  0  0  0  0  0  0
  -49.4382   57.5054   61.5265 C   0  0  0  0  0  0  0  0  0  0  0  0
  -50.8799   59.4596   62.6124 C   0  0  0  0  0  0  0  0  0  0  0  0
  -50.7272   58.3276   61.5777 C   0  0  0  0  0  0  0  0  0  0  0  0
  -49.8220   59.7248   63.6946 C   0  0  0  0  0  0  0  0  0  0  0  0
  -50.2977   59.0237   64.9754 C   0  0  0  0  0  0  0  0  0  0  0  0
  -49.4367   57.9567   65.6931 C   0  0  0  0  0  0  0  0  0  0  0  0
  -48.0368   57.5639   65.1816 C   0  0  0  0  0  0  0  0  0  0  0  0
  -46.2812   56.7799   66.8344 C   0  0  0  0  0  0  0  0  0  0  0  0
  -47.5398   56.4003   66.0504 C   0  0  0  0  0  0  0  0  0  0  0  0
  -46.6939   57.4079   57.6747 C   0  0  0  0  0  0  0  0  0  0  0  0
  -45.8635   57.7877   58.9234 C   0  0  0  0  0  0  0  0  0  0  0  0
  -47.5721   61.0135   59.5786 C   0  0  0  0  0  0  0  0  0  0  0  0
  -47.3520   61.1908   60.9510 C   0  0  0  0  0  0  0  0  0  0  0  0
  -47.0702   59.8838   58.9216 C   0  0  0  0  0  0  0  0  0  0  0  0
  -46.6291   60.2207   61.6450 C   0  0  0  0  0  0  0  0  0  0  0  0
  -46.1389   59.0943   60.9863 C   0  0  0  0  0  0  0  0  0  0  0  0
  -46.3736   58.8914   59.6203 C   0  0  0  0  0  0  0  0  0  0  0  0
  -46.3710   60.3188   62.9722 O   0  0  0  0  0  0  0  0  0  0  0  0
  -45.4440   58.1678   61.7077 O   0  0  0  0  0  0  0  0  0  0  0  0
  -46.6810   61.0588   63.4563 H   0  0  0  0  0  0  0  0  0  0  0  0
  -45.2883   58.3060   62.6213 H   0  0  0  0  0  0  0  0  0  0  0  0
 12 13  1  0  0  0
  9 10  2  0  0  0
  9  8  1  0  0  0
  6  7  2  0  0  0
  6  8  1  0  0  0
 10 11  1  0  0  0
  7  5  1  0  0  0
 16 17  2  0  0  0
 16 18  1  0  0  0
 17 19  1  0  0  0
 18 21  2  0  0  0
 13 11  1  0  0  0
  5  4  1  0  0  0
  4  3  1  0  0  0
  3  2  1  0  0  0
  2  1  1  0  0  0
  1 14  1  0  0  0
 14 15  1  0  0  0
 15 21  1  0  0  0
 19 20  2  0  0  0
 19 22  1  0  0  0
 20 21  1  0  0  0
 20 23  1  0  0  0
 22 24  1  0  0  0
 23 25  1  0  0  0
M  END
> <minimizedAffinity>
-8.01326

> <CNNscore>
0.6777583361

> <CNNaffinity>
6.8305768967

> <CNN_VS>
4.6294803619

> <CNNaffinity_variance>
0.1793141067

$$$$
/media/chris/experiments/cd1a-new-docking/inputs/ligands/5j1a_ligand.pdb


 25 25  0  0  0  0  0  0  0  0999 V2000
  -47.0681   59.7320   59.0401 C   0  0  0  0  0  0  0  0  0  0  0  0
  -46.3257   58.4593   59.4738 C   0  0  0  0  0  0  0  0  0  0  0  0
  -46.5620   57.3390   58.4702 C   0  0  0  0  0  0  0  0  0  0  0  0
  -48.0543   57.0099   58.4187 C   0  0  0  0  0  0  0  0  0  0  0  0
  -48.5538   56.6100   59.8069 C   0  0  0  0  0  0  0  0  0  0  0  0
  -50.6167   57.6427   61.1313 C   0  0  0  0  0  0  0  0  0  0  0  0
  -50.0445   56.9448   59.8819 C   0  0  0  0  0  0  0  0  0  0  0  0
  -49.7617   57.9136   62.3789 C   0  0  0  0  0  0  0  0  0  0  0  0
  -50.2187   59.2603   62.9582 C   0  0  0  0  0  0  0  0  0  0  0  0
  -50.4213   59.4716   64.4779 C   0  0  0  0  0  0  0  0  0  0  0  0
  -50.1411   58.3511   65.4985 C   0  0  0  0  0  0  0  0  0  0  0  0
  -47.8752   57.2139   65.5299 C   0  0  0  0  0  0  0  0  0  0  0  0
  -48.6680   58.4657   65.9138 C   0  0  0  0  0  0  0  0  0  0  0  0
  -48.0292   60.2822   60.1257 C   0  0  0  0  0  0  0  0  0  0  0  0
  -47.4859   61.5446   60.8360 C   0  0  0  0  0  0  0  0  0  0  0  0
  -45.9003   59.9360   63.7777 C   0  0  0  0  0  0  0  0  0  0  0  0
  -44.7370   60.6998   63.9405 C   0  0  0  0  0  0  0  0  0  0  0  0
  -46.8016   60.2303   62.7476 C   0  0  0  0  0  0  0  0  0  0  0  0
  -44.4961   61.7516   63.0567 C   0  0  0  0  0  0  0  0  0  0  0  0
  -45.3938   62.0342   62.0284 C   0  0  0  0  0  0  0  0  0  0  0  0
  -46.5473   61.2628   61.8380 C   0  0  0  0  0  0  0  0  0  0  0  0
  -43.3964   62.5389   63.1478 O   0  0  0  0  0  0  0  0  0  0  0  0
  -45.1126   63.0677   61.1831 O   0  0  0  0  0  0  0  0  0  0  0  0
  -42.7653   62.3860   63.8233 H   0  0  0  0  0  0  0  0  0  0  0  0
  -44.3403   63.5822   61.3127 H   0  0  0  0  0  0  0  0  0  0  0  0
 12 13  1  0  0  0
  9 10  2  0  0  0
  9  8  1  0  0  0
  6  7  2  0  0  0
  6  8  1  0  0  0
 10 11  1  0  0  0
  7  5  1  0  0  0
 16 17  2  0  0  0
 16 18  1  0  0  0
 17 19  1  0  0  0
 18 21  2  0  0  0
 13 11  1  0  0  0
  5  4  1  0  0  0
  4  3  1  0  0  0
  3  2  1  0  0  0
  2  1  1  0  0  0
  1 14  1  0  0  0
 14 15  1  0  0  0
 15 21  1  0  0  0
 19 20  2  0  0  0
 19 22  1  0  0  0
 20 21  1  0  0  0
 20 23  1  0  0  0
 22 24  1  0  0  0
 23 25  1  0  0  0
M  END
> <minimizedAffinity>
-7.35499

> <CNNscore>
0.5303916931

> <CNNaffinity>
6.4920768738

> <CNN_VS>
3.4433436394

> <CNNaffinity_variance>
0.0679995269

$$$$
/media/chris/experiments/cd1a-new-docking/inputs/ligands/5j1a_ligand.pdb


 25 25  0  0  0  0  0  0  0  0999 V2000
  -49.6505   57.9176   58.5049 C   0  0  0  0  0  0  0  0  0  0  0  0
  -49.8307   56.9877   59.7139 C   0  0  0  0  0  0  0  0  0  0  0  0
  -50.8408   57.5756   60.6897 C   0  0  0  0  0  0  0  0  0  0  0  0
  -50.1807   58.7012   61.4869 C   0  0  0  0  0  0  0  0  0  0  0  0
  -49.1736   58.1224   62.4805 C   0  0  0  0  0  0  0  0  0  0  0  0
  -48.7876   58.3397   65.1035 C   0  0  0  0  0  0  0  0  0  0  0  0
  -49.7357   58.3264   63.8885 C   0  0  0  0  0  0  0  0  0  0  0  0
  -47.2882   58.0310   64.9726 C   0  0  0  0  0  0  0  0  0  0  0  0
  -46.9629   56.9238   65.9857 C   0  0  0  0  0  0  0  0  0  0  0  0
  -45.5179   56.6566   66.4710 C   0  0  0  0  0  0  0  0  0  0  0  0
  -44.3284   57.5113   65.9910 C   0  0  0  0  0  0  0  0  0  0  0  0
  -43.3466   56.9397   63.7245 C   0  0  0  0  0  0  0  0  0  0  0  0
  -43.3821   56.5865   65.2134 C   0  0  0  0  0  0  0  0  0  0  0  0
  -48.3064   57.7042   57.7613 C   0  0  0  0  0  0  0  0  0  0  0  0
  -47.3641   58.9283   57.8444 C   0  0  0  0  0  0  0  0  0  0  0  0
  -45.6204   58.1958   61.0347 C   0  0  0  0  0  0  0  0  0  0  0  0
  -45.7361   59.4122   61.7204 C   0  0  0  0  0  0  0  0  0  0  0  0
  -46.1674   58.0505   59.7543 C   0  0  0  0  0  0  0  0  0  0  0  0
  -46.4012   60.4704   61.1013 C   0  0  0  0  0  0  0  0  0  0  0  0
  -46.9366   60.3215   59.8230 C   0  0  0  0  0  0  0  0  0  0  0  0
  -46.8058   59.1196   59.1156 C   0  0  0  0  0  0  0  0  0  0  0  0
  -46.5579   61.6776   61.6978 O   0  0  0  0  0  0  0  0  0  0  0  0
  -47.5718   61.3865   59.2539 O   0  0  0  0  0  0  0  0  0  0  0  0
  -46.2143   61.8237   62.5572 H   0  0  0  0  0  0  0  0  0  0  0  0
  -47.6580   62.1894   59.7293 H   0  0  0  0  0  0  0  0  0  0  0  0
 12 13  1  0  0  0
  9 10  2  0  0  0
  9  8  1  0  0  0
  6  7  2  0  0  0
  6  8  1  0  0  0
 10 11  1  0  0  0
  7  5  1  0  0  0
 16 17  2  0  0  0
 16 18  1  0  0  0
 17 19  1  0  0  0
 18 21  2  0  0  0
 13 11  1  0  0  0
  5  4  1  0  0  0
  4  3  1  0  0  0
  3  2  1  0  0  0
  2  1  1  0  0  0
  1 14  1  0  0  0
 14 15  1  0  0  0
 15 21  1  0  0  0
 19 20  2  0  0  0
 19 22  1  0  0  0
 20 21  1  0  0  0
 20 23  1  0  0  0
 22 24  1  0  0  0
 23 25  1  0  0  0
M  END
> <minimizedAffinity>
-7.66641

> <CNNscore>
0.3553075790

> <CNNaffinity>
6.5213789940

> <CNN_VS>
2.3170952797

> <CNNaffinity_variance>
0.2192409784

$$$$
/media/chris/experiments/cd1a-new-docking/inputs/ligands/5j1a_ligand.pdb


 25 25  0  0  0  0  0  0  0  0999 V2000
  -38.5039   58.7312   65.1301 C   0  0  0  0  0  0  0  0  0  0  0  0
  -37.8846   57.6215   64.2674 C   0  0  0  0  0  0  0  0  0  0  0  0
  -36.3675   57.7479   64.2490 C   0  0  0  0  0  0  0  0  0  0  0  0
  -35.8213   57.1203   62.9661 C   0  0  0  0  0  0  0  0  0  0  0  0
  -36.9025   57.1047   61.8857 C   0  0  0  0  0  0  0  0  0  0  0  0
  -37.9424   58.9875   60.3204 C   0  0  0  0  0  0  0  0  0  0  0  0
  -36.7264   58.3603   61.0297 C   0  0  0  0  0  0  0  0  0  0  0  0
  -39.3288   58.3254   60.3375 C   0  0  0  0  0  0  0  0  0  0  0  0
  -40.1022   58.9230   61.5220 C   0  0  0  0  0  0  0  0  0  0  0  0
  -41.0132   58.0577   62.4255 C   0  0  0  0  0  0  0  0  0  0  0  0
  -41.1668   56.5395   62.2083 C   0  0  0  0  0  0  0  0  0  0  0  0
  -41.8572   54.4238   63.4228 C   0  0  0  0  0  0  0  0  0  0  0  0
  -41.5665   55.9207   63.5548 C   0  0  0  0  0  0  0  0  0  0  0  0
  -37.9199   60.1370   64.8339 C   0  0  0  0  0  0  0  0  0  0  0  0
  -37.4133   60.8648   66.1016 C   0  0  0  0  0  0  0  0  0  0  0  0
  -34.3710   62.2069   64.4591 C   0  0  0  0  0  0  0  0  0  0  0  0
  -33.9005   63.1211   65.4111 C   0  0  0  0  0  0  0  0  0  0  0  0
  -35.5329   61.4655   64.7040 C   0  0  0  0  0  0  0  0  0  0  0  0
  -34.6132   63.2780   66.5997 C   0  0  0  0  0  0  0  0  0  0  0  0
  -35.7737   62.5423   66.8338 C   0  0  0  0  0  0  0  0  0  0  0  0
  -36.2698   61.6442   65.8801 C   0  0  0  0  0  0  0  0  0  0  0  0
  -34.2235   64.1392   67.5715 O   0  0  0  0  0  0  0  0  0  0  0  0
  -36.4423   62.7349   68.0075 O   0  0  0  0  0  0  0  0  0  0  0  0
  -33.4494   64.6547   67.4578 H   0  0  0  0  0  0  0  0  0  0  0  0
  -36.1083   63.3362   68.6437 H   0  0  0  0  0  0  0  0  0  0  0  0
 12 13  1  0  0  0
  9 10  2  0  0  0
  9  8  1  0  0  0
  6  7  2  0  0  0
  6  8  1  0  0  0
 10 11  1  0  0  0
  7  5  1  0  0  0
 16 17  2  0  0  0
 16 18  1  0  0  0
 17 19  1  0  0  0
 18 21  2  0  0  0
 13 11  1  0  0  0
  5  4  1  0  0  0
  4  3  1  0  0  0
  3  2  1  0  0  0
  2  1  1  0  0  0
  1 14  1  0  0  0
 14 15  1  0  0  0
 15 21  1  0  0  0
 19 20  2  0  0  0
 19 22  1  0  0  0
 20 21  1  0  0  0
 20 23  1  0  0  0
 22 24  1  0  0  0
 23 25  1  0  0  0
M  END
> <minimizedAffinity>
-7.54057

> <CNNscore>
0.3360422552

> <CNNaffinity>
5.9713425636

> <CNN_VS>
2.0066235065

> <CNNaffinity_variance>
0.1390913427

$$$$
/media/chris/experiments/cd1a-new-docking/inputs/ligands/5j1a_ligand.pdb


 25 25  0  0  0  0  0  0  0  0999 V2000
  -48.8027   59.9823   61.6063 C   0  0  0  0  0  0  0  0  0  0  0  0
  -49.8876   59.3705   62.5051 C   0  0  0  0  0  0  0  0  0  0  0  0
  -49.3744   58.0982   63.1653 C   0  0  0  0  0  0  0  0  0  0  0  0
  -49.7182   58.1250   64.6550 C   0  0  0  0  0  0  0  0  0  0  0  0
  -50.1017   59.5418   65.0816 C   0  0  0  0  0  0  0  0  0  0  0  0
  -47.9144   60.4626   66.2832 C   0  0  0  0  0  0  0  0  0  0  0  0
  -49.3340   59.8680   66.3639 C   0  0  0  0  0  0  0  0  0  0  0  0
  -47.1753   60.6333   64.9471 C   0  0  0  0  0  0  0  0  0  0  0  0
  -45.6918   60.3341   65.2078 C   0  0  0  0  0  0  0  0  0  0  0  0
  -45.1257   58.8946   65.1585 C   0  0  0  0  0  0  0  0  0  0  0  0
  -46.0134   57.6840   64.8093 C   0  0  0  0  0  0  0  0  0  0  0  0
  -46.5189   57.1512   67.2360 C   0  0  0  0  0  0  0  0  0  0  0  0
  -45.8622   56.6609   65.9433 C   0  0  0  0  0  0  0  0  0  0  0  0
  -49.3065   60.3198   60.1789 C   0  0  0  0  0  0  0  0  0  0  0  0
  -49.6525   59.0648   59.3433 C   0  0  0  0  0  0  0  0  0  0  0  0
  -46.4350   58.3687   57.6349 C   0  0  0  0  0  0  0  0  0  0  0  0
  -46.2704   56.9961   57.8634 C   0  0  0  0  0  0  0  0  0  0  0  0
  -47.5613   59.0380   58.1283 C   0  0  0  0  0  0  0  0  0  0  0  0
  -47.2458   56.3159   58.5922 C   0  0  0  0  0  0  0  0  0  0  0  0
  -48.3609   56.9900   59.0873 C   0  0  0  0  0  0  0  0  0  0  0  0
  -48.5254   58.3668   58.8888 C   0  0  0  0  0  0  0  0  0  0  0  0
  -47.1622   54.9884   58.8542 O   0  0  0  0  0  0  0  0  0  0  0  0
  -49.2852   56.2849   59.8015 O   0  0  0  0  0  0  0  0  0  0  0  0
  -46.4302   54.4943   58.5413 H   0  0  0  0  0  0  0  0  0  0  0  0
  -49.1728   55.3640   59.9328 H   0  0  0  0  0  0  0  0  0  0  0  0
 12 13  1  0  0  0
  9 10  2  0  0  0
  9  8  1  0  0  0
  6  7  2  0  0  0
  6  8  1  0  0  0
 10 11  1  0  0  0
  7  5  1  0  0  0
 16 17  2  0  0  0
 16 18  1  0  0  0
 17 19  1  0  0  0
 18 21  2  0  0  0
 13 11  1  0  0  0
  5  4  1  0  0  0
  4  3  1  0  0  0
  3  2  1  0  0  0
  2  1  1  0  0  0
  1 14  1  0  0  0
 14 15  1  0  0  0
 15 21  1  0  0  0
 19 20  2  0  0  0
 19 22  1  0  0  0
 20 21  1  0  0  0
 20 23  1  0  0  0
 22 24  1  0  0  0
 23 25  1  0  0  0
M  END
> <minimizedAffinity>
-7.77818

> <CNNscore>
0.3351964653

> <CNNaffinity>
6.3915710449

> <CNN_VS>
2.1424319744

> <CNNaffinity_variance>
0.2819408476

$$$$
/media/chris/experiments/cd1a-new-docking/inputs/ligands/5j1a_ligand.pdb


 25 25  0  0  0  0  0  0  0  0999 V2000
  -50.0733   57.1895   60.1116 C   0  0  0  0  0  0  0  0  0  0  0  0
  -50.7429   57.8577   61.3216 C   0  0  0  0  0  0  0  0  0  0  0  0
  -49.6917   58.3261   62.3184 C   0  0  0  0  0  0  0  0  0  0  0  0
  -50.3730   59.0943   63.4514 C   0  0  0  0  0  0  0  0  0  0  0  0
  -50.0682   58.4318   64.7947 C   0  0  0  0  0  0  0  0  0  0  0  0
  -48.7893   59.9432   66.5714 C   0  0  0  0  0  0  0  0  0  0  0  0
  -50.0945   59.5201   65.8695 C   0  0  0  0  0  0  0  0  0  0  0  0
  -47.4561   59.2219   66.3200 C   0  0  0  0  0  0  0  0  0  0  0  0
  -46.7033   60.0212   65.2464 C   0  0  0  0  0  0  0  0  0  0  0  0
  -45.1608   60.1458   65.2494 C   0  0  0  0  0  0  0  0  0  0  0  0
  -44.2910   59.4441   66.3108 C   0  0  0  0  0  0  0  0  0  0  0  0
  -41.8461   60.1150   66.2841 C   0  0  0  0  0  0  0  0  0  0  0  0
  -42.9123   59.1953   65.6839 C   0  0  0  0  0  0  0  0  0  0  0  0
  -50.0896   58.0717   58.8362 C   0  0  0  0  0  0  0  0  0  0  0  0
  -48.6739   58.4470   58.3380 C   0  0  0  0  0  0  0  0  0  0  0  0
  -47.5076   61.2061   60.5248 C   0  0  0  0  0  0  0  0  0  0  0  0
  -46.3697   60.6482   61.1225 C   0  0  0  0  0  0  0  0  0  0  0  0
  -48.2574   60.4661   59.6028 C   0  0  0  0  0  0  0  0  0  0  0  0
  -46.0046   59.3455   60.7835 C   0  0  0  0  0  0  0  0  0  0  0  0
  -46.7602   58.6114   59.8707 C   0  0  0  0  0  0  0  0  0  0  0  0
  -47.9145   59.1470   59.2853 C   0  0  0  0  0  0  0  0  0  0  0  0
  -44.9171   58.7348   61.3148 O   0  0  0  0  0  0  0  0  0  0  0  0
  -46.3693   57.3379   59.5756 O   0  0  0  0  0  0  0  0  0  0  0  0
  -44.3795   59.1898   61.9328 H   0  0  0  0  0  0  0  0  0  0  0  0
  -45.5968   56.9819   59.9686 H   0  0  0  0  0  0  0  0  0  0  0  0
 12 13  1  0  0  0
  9 10  2  0  0  0
  9  8  1  0  0  0
  6  7  2  0  0  0
  6  8  1  0  0  0
 10 11  1  0  0  0
  7  5  1  0  0  0
 16 17  2  0  0  0
 16 18  1  0  0  0
 17 19  1  0  0  0
 18 21  2  0  0  0
 13 11  1  0  0  0
  5  4  1  0  0  0
  4  3  1  0  0  0
  3  2  1  0  0  0
  2  1  1  0  0  0
  1 14  1  0  0  0
 14 15  1  0  0  0
 15 21  1  0  0  0
 19 20  2  0  0  0
 19 22  1  0  0  0
 20 21  1  0  0  0
 20 23  1  0  0  0
 22 24  1  0  0  0
 23 25  1  0  0  0
M  END
> <minimizedAffinity>
-7.55599

> <CNNscore>
0.3158189952

> <CNNaffinity>
6.2261743546

> <CNN_VS>
1.9663441181

> <CNNaffinity_variance>
0.2202222645

$$$$
/media/chris/experiments/cd1a-new-docking/inputs/ligands/5j1a_ligand.pdb


 25 25  0  0  0  0  0  0  0  0999 V2000
  -45.9226   57.9011   59.0938 C   0  0  0  0  0  0  0  0  0  0  0  0
  -46.6261   59.0441   58.3472 C   0  0  0  0  0  0  0  0  0  0  0  0
  -48.0697   59.1734   58.8135 C   0  0  0  0  0  0  0  0  0  0  0  0
  -48.2509   60.5060   59.5409 C   0  0  0  0  0  0  0  0  0  0  0  0
  -49.4506   60.4319   60.4851 C   0  0  0  0  0  0  0  0  0  0  0  0
  -49.6317   58.5286   62.3347 C   0  0  0  0  0  0  0  0  0  0  0  0
  -49.6634   58.9633   60.8564 C   0  0  0  0  0  0  0  0  0  0  0  0
  -49.2691   59.5042   63.4651 C   0  0  0  0  0  0  0  0  0  0  0  0
  -50.2253   59.2209   64.6328 C   0  0  0  0  0  0  0  0  0  0  0  0
  -49.7377   58.5770   65.9529 C   0  0  0  0  0  0  0  0  0  0  0  0
  -48.2568   58.2167   66.1826 C   0  0  0  0  0  0  0  0  0  0  0  0
  -46.2332   59.7127   65.8743 C   0  0  0  0  0  0  0  0  0  0  0  0
  -47.5391   59.4932   66.6419 C   0  0  0  0  0  0  0  0  0  0  0  0
  -46.1078   57.9672   60.6321 C   0  0  0  0  0  0  0  0  0  0  0  0
  -44.7904   58.2510   61.3919 C   0  0  0  0  0  0  0  0  0  0  0  0
  -45.9131   61.5754   62.5929 C   0  0  0  0  0  0  0  0  0  0  0  0
  -44.7403   62.0984   63.1534 C   0  0  0  0  0  0  0  0  0  0  0  0
  -45.9126   60.3022   62.0108 C   0  0  0  0  0  0  0  0  0  0  0  0
  -43.5796   61.3255   63.1222 C   0  0  0  0  0  0  0  0  0  0  0  0
  -43.5879   60.0554   62.5480 C   0  0  0  0  0  0  0  0  0  0  0  0
  -44.7593   59.5097   62.0074 C   0  0  0  0  0  0  0  0  0  0  0  0
  -42.4044   61.7595   63.6401 O   0  0  0  0  0  0  0  0  0  0  0  0
  -42.4308   59.3324   62.5474 O   0  0  0  0  0  0  0  0  0  0  0  0
  -42.3515   62.6070   64.0362 H   0  0  0  0  0  0  0  0  0  0  0  0
  -41.6486   59.6998   62.9097 H   0  0  0  0  0  0  0  0  0  0  0  0
 12 13  1  0  0  0
  9 10  2  0  0  0
  9  8  1  0  0  0
  6  7  2  0  0  0
  6  8  1  0  0  0
 10 11  1  0  0  0
  7  5  1  0  0  0
 16 17  2  0  0  0
 16 18  1  0  0  0
 17 19  1  0  0  0
 18 21  2  0  0  0
 13 11  1  0  0  0
  5  4  1  0  0  0
  4  3  1  0  0  0
  3  2  1  0  0  0
  2  1  1  0  0  0
  1 14  1  0  0  0
 14 15  1  0  0  0
 15 21  1  0  0  0
 19 20  2  0  0  0
 19 22  1  0  0  0
 20 21  1  0  0  0
 20 23  1  0  0  0
 22 24  1  0  0  0
 23 25  1  0  0  0
M  END
> <minimizedAffinity>
-7.02939

> <CNNscore>
0.3137769997

> <CNNaffinity>
6.1728591919

> <CNN_VS>
1.9369012117

> <CNNaffinity_variance>
0.2509273887

$$$$
/media/chris/experiments/cd1a-new-docking/inputs/ligands/5j1a_ligand.pdb


 25 25  0  0  0  0  0  0  0  0999 V2000
  -48.5511   60.3481   65.5136 C   0  0  0  0  0  0  0  0  0  0  0  0
  -49.2422   59.0208   65.8598 C   0  0  0  0  0  0  0  0  0  0  0  0
  -50.1592   58.5879   64.7241 C   0  0  0  0  0  0  0  0  0  0  0  0
  -50.4538   59.7882   63.8238 C   0  0  0  0  0  0  0  0  0  0  0  0
  -50.7704   59.3170   62.4046 C   0  0  0  0  0  0  0  0  0  0  0  0
  -49.5976   59.5007   60.0240 C   0  0  0  0  0  0  0  0  0  0  0  0
  -49.8237   60.0445   61.4483 C   0  0  0  0  0  0  0  0  0  0  0  0
  -50.1995   58.1674   59.5540 C   0  0  0  0  0  0  0  0  0  0  0  0
  -49.1771   57.0686   59.8789 C   0  0  0  0  0  0  0  0  0  0  0  0
  -48.2825   56.4337   58.7873 C   0  0  0  0  0  0  0  0  0  0  0  0
  -48.3429   56.8947   57.3177 C   0  0  0  0  0  0  0  0  0  0  0  0
  -46.8032   58.8767   57.6777 C   0  0  0  0  0  0  0  0  0  0  0  0
  -46.9863   57.5275   56.9785 C   0  0  0  0  0  0  0  0  0  0  0  0
  -47.0298   60.1982   65.2524 C   0  0  0  0  0  0  0  0  0  0  0  0
  -46.6028   58.7395   64.9642 C   0  0  0  0  0  0  0  0  0  0  0  0
  -46.2954   58.5377   61.2737 C   0  0  0  0  0  0  0  0  0  0  0  0
  -44.9631   58.1359   61.1100 C   0  0  0  0  0  0  0  0  0  0  0  0
  -46.8240   58.7299   62.5557 C   0  0  0  0  0  0  0  0  0  0  0  0
  -44.1784   57.9364   62.2457 C   0  0  0  0  0  0  0  0  0  0  0  0
  -44.7088   58.1371   63.5190 C   0  0  0  0  0  0  0  0  0  0  0  0
  -46.0311   58.5638   63.6967 C   0  0  0  0  0  0  0  0  0  0  0  0
  -42.8824   57.5455   62.1731 O   0  0  0  0  0  0  0  0  0  0  0  0
  -43.9015   57.9374   64.6007 O   0  0  0  0  0  0  0  0  0  0  0  0
  -42.4834   57.3986   61.3381 H   0  0  0  0  0  0  0  0  0  0  0  0
  -43.0173   57.6520   64.4791 H   0  0  0  0  0  0  0  0  0  0  0  0
 12 13  1  0  0  0
  9 10  2  0  0  0
  9  8  1  0  0  0
  6  7  2  0  0  0
  6  8  1  0  0  0
 10 11  1  0  0  0
  7  5  1  0  0  0
 16 17  2  0  0  0
 16 18  1  0  0  0
 17 19  1  0  0  0
 18 21  2  0  0  0
 13 11  1  0  0  0
  5  4  1  0  0  0
  4  3  1  0  0  0
  3  2  1  0  0  0
  2  1  1  0  0  0
  1 14  1  0  0  0
 14 15  1  0  0  0
 15 21  1  0  0  0
 19 20  2  0  0  0
 19 22  1  0  0  0
 20 21  1  0  0  0
 20 23  1  0  0  0
 22 24  1  0  0  0
 23 25  1  0  0  0
M  END
> <minimizedAffinity>
-7.34545

> <CNNscore>
0.3112344742

> <CNNaffinity>
6.3313913345

> <CNN_VS>
1.9705471992

> <CNNaffinity_variance>
0.2085959464

$$$$
/media/chris/experiments/cd1a-new-docking/inputs/ligands/5j1a_ligand.pdb


 25 25  0  0  0  0  0  0  0  0999 V2000
  -50.4183   58.9630   62.0048 C   0  0  0  0  0  0  0  0  0  0  0  0
  -51.1778   59.9655   62.8864 C   0  0  0  0  0  0  0  0  0  0  0  0
  -50.6659   59.9065   64.3191 C   0  0  0  0  0  0  0  0  0  0  0  0
  -49.6478   58.7730   64.4482 C   0  0  0  0  0  0  0  0  0  0  0  0
  -49.6934   58.1819   65.8570 C   0  0  0  0  0  0  0  0  0  0  0  0
  -47.1639   57.6861   66.5146 C   0  0  0  0  0  0  0  0  0  0  0  0
  -48.5287   57.1991   65.9897 C   0  0  0  0  0  0  0  0  0  0  0  0
  -46.8816   59.1688   66.8022 C   0  0  0  0  0  0  0  0  0  0  0  0
  -45.5276   59.5055   66.1607 C   0  0  0  0  0  0  0  0  0  0  0  0
  -45.4244   60.2740   64.8214 C   0  0  0  0  0  0  0  0  0  0  0  0
  -46.6755   60.7760   64.0743 C   0  0  0  0  0  0  0  0  0  0  0  0
  -46.5268   58.7448   62.5642 C   0  0  0  0  0  0  0  0  0  0  0  0
  -46.5794   60.2732   62.6274 C   0  0  0  0  0  0  0  0  0  0  0  0
  -49.6934   59.6267   60.8052 C   0  0  0  0  0  0  0  0  0  0  0  0
  -49.8560   58.8382   59.4842 C   0  0  0  0  0  0  0  0  0  0  0  0
  -46.5354   58.5070   57.8660 C   0  0  0  0  0  0  0  0  0  0  0  0
  -46.2771   57.1364   57.9998 C   0  0  0  0  0  0  0  0  0  0  0  0
  -47.7257   59.0543   58.3594 C   0  0  0  0  0  0  0  0  0  0  0  0
  -47.2250   56.3343   58.6351 C   0  0  0  0  0  0  0  0  0  0  0  0
  -48.4046   56.8870   59.1311 C   0  0  0  0  0  0  0  0  0  0  0  0
  -48.6641   58.2596   59.0274 C   0  0  0  0  0  0  0  0  0  0  0  0
  -47.0522   55.0001   58.8023 O   0  0  0  0  0  0  0  0  0  0  0  0
  -49.2992   56.0650   59.7522 O   0  0  0  0  0  0  0  0  0  0  0  0
  -46.2744   54.5851   58.4850 H   0  0  0  0  0  0  0  0  0  0  0  0
  -49.1232   55.1472   59.8202 H   0  0  0  0  0  0  0  0  0  0  0  0
 12 13  1  0  0  0
  9 10  2  0  0  0
  9  8  1  0  0  0
  6  7  2  0  0  0
  6  8  1  0  0  0
 10 11  1  0  0  0
  7  5  1  0  0  0
 16 17  2  0  0  0
 16 18  1  0  0  0
 17 19  1  0  0  0
 18 21  2  0  0  0
 13 11  1  0  0  0
  5  4  1  0  0  0
  4  3  1  0  0  0
  3  2  1  0  0  0
  2  1  1  0  0  0
  1 14  1  0  0  0
 14 15  1  0  0  0
 15 21  1  0  0  0
 19 20  2  0  0  0
 19 22  1  0  0  0
 20 21  1  0  0  0
 20 23  1  0  0  0
 22 24  1  0  0  0
 23 25  1  0  0  0
M  END
> <minimizedAffinity>
-7.96866

> <CNNscore>
0.3066774309

> <CNNaffinity>
6.5425195694

> <CNN_VS>
2.0064430237

> <CNNaffinity_variance>
0.2274520695

$$$$
