/media/chris/experiments/cd1a-new-docking/inputs/ligands/5j1a_ligand.pdb


 25 25  0  0  0  0  0  0  0  0999 V2000
  -46.7481   59.6536   59.0751 C   0  0  0  0  0  0  0  0  0  0  0  0
  -47.0092   59.0192   57.7010 C   0  0  0  0  0  0  0  0  0  0  0  0
  -46.2300   57.7188   57.5601 C   0  0  0  0  0  0  0  0  0  0  0  0
  -47.1721   56.6110   57.0875 C   0  0  0  0  0  0  0  0  0  0  0  0
  -48.5227   56.7316   57.7929 C   0  0  0  0  0  0  0  0  0  0  0  0
  -49.4164   56.3232   60.2650 C   0  0  0  0  0  0  0  0  0  0  0  0
  -48.4142   56.0091   59.1371 C   0  0  0  0  0  0  0  0  0  0  0  0
  -50.4659   57.4384   60.1378 C   0  0  0  0  0  0  0  0  0  0  0  0
  -49.7441   58.7710   60.3849 C   0  0  0  0  0  0  0  0  0  0  0  0
  -50.0998   59.6854   61.5815 C   0  0  0  0  0  0  0  0  0  0  0  0
  -51.1750   59.2919   62.6133 C   0  0  0  0  0  0  0  0  0  0  0  0
  -50.7553   59.7887   65.0640 C   0  0  0  0  0  0  0  0  0  0  0  0
  -51.1748   60.3659   63.7098 C   0  0  0  0  0  0  0  0  0  0  0  0
  -46.0207   58.7037   60.0617 C   0  0  0  0  0  0  0  0  0  0  0  0
  -46.0734   59.1932   61.5283 C   0  0  0  0  0  0  0  0  0  0  0  0
  -44.6086   62.5880   61.8196 C   0  0  0  0  0  0  0  0  0  0  0  0
  -43.3130   62.3122   62.2764 C   0  0  0  0  0  0  0  0  0  0  0  0
  -45.5090   61.5447   61.5735 C   0  0  0  0  0  0  0  0  0  0  0  0
  -42.9434   60.9833   62.4829 C   0  0  0  0  0  0  0  0  0  0  0  0
  -43.8474   59.9498   62.2434 C   0  0  0  0  0  0  0  0  0  0  0  0
  -45.1539   60.2122   61.8115 C   0  0  0  0  0  0  0  0  0  0  0  0
  -41.7092   60.6327   62.9206 O   0  0  0  0  0  0  0  0  0  0  0  0
  -43.4440   58.6656   62.4668 O   0  0  0  0  0  0  0  0  0  0  0  0
  -41.0685   61.2939   63.0948 H   0  0  0  0  0  0  0  0  0  0  0  0
  -42.5696   58.4928   62.7557 H   0  0  0  0  0  0  0  0  0  0  0  0
 12 13  1  0  0  0
  9 10  2  0  0  0
  9  8  1  0  0  0
  6  7  2  0  0  0
  6  8  1  0  0  0
 10 11  1  0  0  0
  7  5  1  0  0  0
 16 17  2  0  0  0
 16 18  1  0  0  0
 17 19  1  0  0  0
 18 21  2  0  0  0
 13 11  1  0  0  0
  5  4  1  0  0  0
  4  3  1  0  0  0
  3  2  1  0  0  0
  2  1  1  0  0  0
  1 14  1  0  0  0
 14 15  1  0  0  0
 15 21  1  0  0  0
 19 20  2  0  0  0
 19 22  1  0  0  0
 20 21  1  0  0  0
 20 23  1  0  0  0
 22 24  1  0  0  0
 23 25  1  0  0  0
M  END
> <minimizedAffinity>
-8.18276

> <CNNscore>
0.6445087194

> <CNNaffinity>
6.5459084511

> <CNN_VS>
4.2188949585

> <CNNaffinity_variance>
0.0223370455

$$$$
/media/chris/experiments/cd1a-new-docking/inputs/ligands/5j1a_ligand.pdb


 25 25  0  0  0  0  0  0  0  0999 V2000
  -49.2548   58.3906   61.6656 C   0  0  0  0  0  0  0  0  0  0  0  0
  -49.7404   59.7658   62.1475 C   0  0  0  0  0  0  0  0  0  0  0  0
  -51.1231   59.6505   62.7743 C   0  0  0  0  0  0  0  0  0  0  0  0
  -51.0408   60.0173   64.2565 C   0  0  0  0  0  0  0  0  0  0  0  0
  -50.1528   59.0182   64.9978 C   0  0  0  0  0  0  0  0  0  0  0  0
  -48.3084   60.4931   66.2223 C   0  0  0  0  0  0  0  0  0  0  0  0
  -49.6318   59.7041   66.2621 C   0  0  0  0  0  0  0  0  0  0  0  0
  -47.4115   60.5210   64.9750 C   0  0  0  0  0  0  0  0  0  0  0  0
  -46.0139   60.0576   65.4107 C   0  0  0  0  0  0  0  0  0  0  0  0
  -45.6548   58.5589   65.5512 C   0  0  0  0  0  0  0  0  0  0  0  0
  -46.6706   57.4462   65.2266 C   0  0  0  0  0  0  0  0  0  0  0  0
  -46.2817   57.3574   67.7305 C   0  0  0  0  0  0  0  0  0  0  0  0
  -47.1020   56.8151   66.5575 C   0  0  0  0  0  0  0  0  0  0  0  0
  -50.2972   57.6418   60.7953 C   0  0  0  0  0  0  0  0  0  0  0  0
  -50.1705   57.9590   59.2865 C   0  0  0  0  0  0  0  0  0  0  0  0
  -46.8616   58.8218   57.8505 C   0  0  0  0  0  0  0  0  0  0  0  0
  -46.2703   57.5613   57.6936 C   0  0  0  0  0  0  0  0  0  0  0  0
  -48.1542   58.9363   58.3760 C   0  0  0  0  0  0  0  0  0  0  0  0
  -46.9919   56.4299   58.0736 C   0  0  0  0  0  0  0  0  0  0  0  0
  -48.2754   56.5516   58.6032 C   0  0  0  0  0  0  0  0  0  0  0  0
  -48.8688   57.8067   58.7899 C   0  0  0  0  0  0  0  0  0  0  0  0
  -46.4925   55.1755   57.9516 O   0  0  0  0  0  0  0  0  0  0  0  0
  -48.9406   55.4175   58.9683 O   0  0  0  0  0  0  0  0  0  0  0  0
  -45.6336   55.0452   57.6004 H   0  0  0  0  0  0  0  0  0  0  0  0
  -48.5414   54.5793   58.8423 H   0  0  0  0  0  0  0  0  0  0  0  0
 12 13  1  0  0  0
  9 10  2  0  0  0
  9  8  1  0  0  0
  6  7  2  0  0  0
  6  8  1  0  0  0
 10 11  1  0  0  0
  7  5  1  0  0  0
 16 17  2  0  0  0
 16 18  1  0  0  0
 17 19  1  0  0  0
 18 21  2  0  0  0
 13 11  1  0  0  0
  5  4  1  0  0  0
  4  3  1  0  0  0
  3  2  1  0  0  0
  2  1  1  0  0  0
  1 14  1  0  0  0
 14 15  1  0  0  0
 15 21  1  0  0  0
 19 20  2  0  0  0
 19 22  1  0  0  0
 20 21  1  0  0  0
 20 23  1  0  0  0
 22 24  1  0  0  0
 23 25  1  0  0  0
M  END
> <minimizedAffinity>
-8.15818

> <CNNscore>
0.4752435684

> <CNNaffinity>
6.6333932877

> <CNN_VS>
3.1524775028

> <CNNaffinity_variance>
0.2229564190

$$$$
/media/chris/experiments/cd1a-new-docking/inputs/ligands/5j1a_ligand.pdb


 25 25  0  0  0  0  0  0  0  0999 V2000
  -49.4376   57.6546   58.3143 C   0  0  0  0  0  0  0  0  0  0  0  0
  -49.4004   56.7513   59.5560 C   0  0  0  0  0  0  0  0  0  0  0  0
  -50.4761   57.1695   60.5490 C   0  0  0  0  0  0  0  0  0  0  0  0
  -50.2000   58.5958   61.0258 C   0  0  0  0  0  0  0  0  0  0  0  0
  -50.2134   58.6524   62.5533 C   0  0  0  0  0  0  0  0  0  0  0  0
  -51.1778   60.2547   64.4451 C   0  0  0  0  0  0  0  0  0  0  0  0
  -51.1213   59.8109   62.9703 C   0  0  0  0  0  0  0  0  0  0  0  0
  -50.4393   59.4922   65.5561 C   0  0  0  0  0  0  0  0  0  0  0  0
  -48.9736   59.9488   65.5227 C   0  0  0  0  0  0  0  0  0  0  0  0
  -47.8029   58.9395   65.4480 C   0  0  0  0  0  0  0  0  0  0  0  0
  -48.0446   57.4195   65.3668 C   0  0  0  0  0  0  0  0  0  0  0  0
  -46.6720   57.7147   67.4781 C   0  0  0  0  0  0  0  0  0  0  0  0
  -47.0943   56.7489   66.3682 C   0  0  0  0  0  0  0  0  0  0  0  0
  -48.1629   57.5463   57.4379 C   0  0  0  0  0  0  0  0  0  0  0  0
  -47.2207   58.7648   57.5811 C   0  0  0  0  0  0  0  0  0  0  0  0
  -45.4158   58.0002   60.7296 C   0  0  0  0  0  0  0  0  0  0  0  0
  -45.6914   59.1309   61.5098 C   0  0  0  0  0  0  0  0  0  0  0  0
  -45.9320   57.8926   59.4328 C   0  0  0  0  0  0  0  0  0  0  0  0
  -46.4836   60.1428   60.9680 C   0  0  0  0  0  0  0  0  0  0  0  0
  -46.9879   60.0328   59.6732 C   0  0  0  0  0  0  0  0  0  0  0  0
  -46.6991   58.9202   58.8727 C   0  0  0  0  0  0  0  0  0  0  0  0
  -46.7982   61.2666   61.6579 O   0  0  0  0  0  0  0  0  0  0  0  0
  -47.7519   61.0512   59.1822 O   0  0  0  0  0  0  0  0  0  0  0  0
  -46.4814   61.3839   62.5320 H   0  0  0  0  0  0  0  0  0  0  0  0
  -47.9436   61.7943   59.7197 H   0  0  0  0  0  0  0  0  0  0  0  0
 12 13  1  0  0  0
  9 10  2  0  0  0
  9  8  1  0  0  0
  6  7  2  0  0  0
  6  8  1  0  0  0
 10 11  1  0  0  0
  7  5  1  0  0  0
 16 17  2  0  0  0
 16 18  1  0  0  0
 17 19  1  0  0  0
 18 21  2  0  0  0
 13 11  1  0  0  0
  5  4  1  0  0  0
  4  3  1  0  0  0
  3  2  1  0  0  0
  2  1  1  0  0  0
  1 14  1  0  0  0
 14 15  1  0  0  0
 15 21  1  0  0  0
 19 20  2  0  0  0
 19 22  1  0  0  0
 20 21  1  0  0  0
 20 23  1  0  0  0
 22 24  1  0  0  0
 23 25  1  0  0  0
M  END
> <minimizedAffinity>
-8.30985

> <CNNscore>
0.4048209190

> <CNNaffinity>
6.4547109604

> <CNN_VS>
2.6130020618

> <CNNaffinity_variance>
0.2961467803

$$$$
/media/chris/experiments/cd1a-new-docking/inputs/ligands/5j1a_ligand.pdb


 25 25  0  0  0  0  0  0  0  0999 V2000
  -45.7104   57.5121   58.9014 C   0  0  0  0  0  0  0  0  0  0  0  0
  -46.4649   58.0229   57.6649 C   0  0  0  0  0  0  0  0  0  0  0  0
  -47.7354   58.7509   58.0817 C   0  0  0  0  0  0  0  0  0  0  0  0
  -48.9287   57.8034   57.9538 C   0  0  0  0  0  0  0  0  0  0  0  0
  -50.0641   58.2597   58.8698 C   0  0  0  0  0  0  0  0  0  0  0  0
  -50.3326   57.8650   61.4868 C   0  0  0  0  0  0  0  0  0  0  0  0
  -50.1100   57.3084   60.0670 C   0  0  0  0  0  0  0  0  0  0  0  0
  -50.3916   59.3737   61.7725 C   0  0  0  0  0  0  0  0  0  0  0  0
  -50.8866   59.5430   63.2162 C   0  0  0  0  0  0  0  0  0  0  0  0
  -49.9139   59.8138   64.3890 C   0  0  0  0  0  0  0  0  0  0  0  0
  -48.3961   59.9643   64.1674 C   0  0  0  0  0  0  0  0  0  0  0  0
  -48.6806   57.7416   65.3537 C   0  0  0  0  0  0  0  0  0  0  0  0
  -47.7445   58.6201   64.5201 C   0  0  0  0  0  0  0  0  0  0  0  0
  -46.4024   57.8820   60.2390 C   0  0  0  0  0  0  0  0  0  0  0  0
  -45.4133   58.3846   61.3171 C   0  0  0  0  0  0  0  0  0  0  0  0
  -46.7023   61.8621   61.2850 C   0  0  0  0  0  0  0  0  0  0  0  0
  -45.6513   62.5719   61.8807 C   0  0  0  0  0  0  0  0  0  0  0  0
  -46.6067   60.4774   61.1025 C   0  0  0  0  0  0  0  0  0  0  0  0
  -44.5160   61.8722   62.2890 C   0  0  0  0  0  0  0  0  0  0  0  0
  -44.4307   60.4923   62.1114 C   0  0  0  0  0  0  0  0  0  0  0  0
  -45.4842   59.7663   61.5411 C   0  0  0  0  0  0  0  0  0  0  0  0
  -43.4557   62.4849   62.8705 O   0  0  0  0  0  0  0  0  0  0  0  0
  -43.3039   59.8489   62.5334 O   0  0  0  0  0  0  0  0  0  0  0  0
  -43.4685   63.4114   63.0100 H   0  0  0  0  0  0  0  0  0  0  0  0
  -42.6007   60.3368   62.9145 H   0  0  0  0  0  0  0  0  0  0  0  0
 12 13  1  0  0  0
  9 10  2  0  0  0
  9  8  1  0  0  0
  6  7  2  0  0  0
  6  8  1  0  0  0
 10 11  1  0  0  0
  7  5  1  0  0  0
 16 17  2  0  0  0
 16 18  1  0  0  0
 17 19  1  0  0  0
 18 21  2  0  0  0
 13 11  1  0  0  0
  5  4  1  0  0  0
  4  3  1  0  0  0
  3  2  1  0  0  0
  2  1  1  0  0  0
  1 14  1  0  0  0
 14 15  1  0  0  0
 15 21  1  0  0  0
 19 20  2  0  0  0
 19 22  1  0  0  0
 20 21  1  0  0  0
 20 23  1  0  0  0
 22 24  1  0  0  0
 23 25  1  0  0  0
M  END
> <minimizedAffinity>
-7.82646

> <CNNscore>
0.3794713914

> <CNNaffinity>
6.3227891922

> <CNN_VS>
2.3993175030

> <CNNaffinity_variance>
0.1179734319

$$$$
/media/chris/experiments/cd1a-new-docking/inputs/ligands/5j1a_ligand.pdb


 25 25  0  0  0  0  0  0  0  0999 V2000
  -46.2718   58.1047   57.6067 C   0  0  0  0  0  0  0  0  0  0  0  0
  -47.1427   57.0257   56.9461 C   0  0  0  0  0  0  0  0  0  0  0  0
  -48.3702   56.7384   57.7998 C   0  0  0  0  0  0  0  0  0  0  0  0
  -47.9792   55.8207   58.9586 C   0  0  0  0  0  0  0  0  0  0  0  0
  -48.8598   56.1044   60.1754 C   0  0  0  0  0  0  0  0  0  0  0  0
  -50.6712   57.9733   60.7255 C   0  0  0  0  0  0  0  0  0  0  0  0
  -50.0055   57.0113   59.7222 C   0  0  0  0  0  0  0  0  0  0  0  0
  -50.3083   57.9756   62.2185 C   0  0  0  0  0  0  0  0  0  0  0  0
  -49.4292   59.2094   62.4698 C   0  0  0  0  0  0  0  0  0  0  0  0
  -48.3090   59.2130   63.5375 C   0  0  0  0  0  0  0  0  0  0  0  0
  -47.9894   57.9654   64.3841 C   0  0  0  0  0  0  0  0  0  0  0  0
  -48.8191   59.1506   66.4664 C   0  0  0  0  0  0  0  0  0  0  0  0
  -48.9854   57.9347   65.5515 C   0  0  0  0  0  0  0  0  0  0  0  0
  -47.0306   59.4318   57.8670 C   0  0  0  0  0  0  0  0  0  0  0  0
  -47.5196   59.5767   59.3275 C   0  0  0  0  0  0  0  0  0  0  0  0
  -44.8684   58.3111   61.5913 C   0  0  0  0  0  0  0  0  0  0  0  0
  -44.4404   59.4832   62.2288 C   0  0  0  0  0  0  0  0  0  0  0  0
  -45.8907   58.3583   60.6360 C   0  0  0  0  0  0  0  0  0  0  0  0
  -45.0491   60.6914   61.8901 C   0  0  0  0  0  0  0  0  0  0  0  0
  -46.0610   60.7324   60.9324 C   0  0  0  0  0  0  0  0  0  0  0  0
  -46.4809   59.5726   60.2684 C   0  0  0  0  0  0  0  0  0  0  0  0
  -44.6948   61.8682   62.4623 O   0  0  0  0  0  0  0  0  0  0  0  0
  -46.6221   61.9383   60.6276 O   0  0  0  0  0  0  0  0  0  0  0  0
  -44.0192   61.8891   63.1113 H   0  0  0  0  0  0  0  0  0  0  0  0
  -46.3394   62.7125   61.0732 H   0  0  0  0  0  0  0  0  0  0  0  0
 12 13  1  0  0  0
  9 10  2  0  0  0
  9  8  1  0  0  0
  6  7  2  0  0  0
  6  8  1  0  0  0
 10 11  1  0  0  0
  7  5  1  0  0  0
 16 17  2  0  0  0
 16 18  1  0  0  0
 17 19  1  0  0  0
 18 21  2  0  0  0
 13 11  1  0  0  0
  5  4  1  0  0  0
  4  3  1  0  0  0
  3  2  1  0  0  0
  2  1  1  0  0  0
  1 14  1  0  0  0
 14 15  1  0  0  0
 15 21  1  0  0  0
 19 20  2  0  0  0
 19 22  1  0  0  0
 20 21  1  0  0  0
 20 23  1  0  0  0
 22 24  1  0  0  0
 23 25  1  0  0  0
M  END
> <minimizedAffinity>
-7.70658

> <CNNscore>
0.3573223650

> <CNNaffinity>
6.5713729858

> <CNN_VS>
2.3480985165

> <CNNaffinity_variance>
0.0394684486

$$$$
/media/chris/experiments/cd1a-new-docking/inputs/ligands/5j1a_ligand.pdb


 25 25  0  0  0  0  0  0  0  0999 V2000
  -44.4177   59.7076   61.9669 C   0  0  0  0  0  0  0  0  0  0  0  0
  -43.8933   58.4652   62.7021 C   0  0  0  0  0  0  0  0  0  0  0  0
  -43.3545   58.8481   64.0736 C   0  0  0  0  0  0  0  0  0  0  0  0
  -44.2848   59.8780   64.7152 C   0  0  0  0  0  0  0  0  0  0  0  0
  -44.6885   59.4220   66.1172 C   0  0  0  0  0  0  0  0  0  0  0  0
  -46.0523   57.1458   65.9288 C   0  0  0  0  0  0  0  0  0  0  0  0
  -44.7178   57.8925   66.1210 C   0  0  0  0  0  0  0  0  0  0  0  0
  -47.3975   57.8843   65.8521 C   0  0  0  0  0  0  0  0  0  0  0  0
  -47.7316   58.0652   64.3642 C   0  0  0  0  0  0  0  0  0  0  0  0
  -49.1251   58.5425   63.8899 C   0  0  0  0  0  0  0  0  0  0  0  0
  -50.2452   58.8975   64.8873 C   0  0  0  0  0  0  0  0  0  0  0  0
  -51.1775   59.9920   62.7989 C   0  0  0  0  0  0  0  0  0  0  0  0
  -51.0046   60.1026   64.3158 C   0  0  0  0  0  0  0  0  0  0  0  0
  -45.8079   59.4935   61.3141 C   0  0  0  0  0  0  0  0  0  0  0  0
  -46.0907   58.0155   60.9556 C   0  0  0  0  0  0  0  0  0  0  0  0
  -46.2873   57.6774   57.2674 C   0  0  0  0  0  0  0  0  0  0  0  0
  -47.6692   57.5920   57.0522 C   0  0  0  0  0  0  0  0  0  0  0  0
  -45.7810   57.8207   58.5648 C   0  0  0  0  0  0  0  0  0  0  0  0
  -48.5242   57.6487   58.1526 C   0  0  0  0  0  0  0  0  0  0  0  0
  -48.0129   57.7837   59.4423 C   0  0  0  0  0  0  0  0  0  0  0  0
  -46.6329   57.8441   59.6746 C   0  0  0  0  0  0  0  0  0  0  0  0
  -49.8722   57.5757   58.0291 O   0  0  0  0  0  0  0  0  0  0  0  0
  -48.8871   57.8270   60.4891 O   0  0  0  0  0  0  0  0  0  0  0  0
  -50.2608   57.4847   57.1813 H   0  0  0  0  0  0  0  0  0  0  0  0
  -49.8097   57.7864   60.3310 H   0  0  0  0  0  0  0  0  0  0  0  0
 12 13  1  0  0  0
  9 10  2  0  0  0
  9  8  1  0  0  0
  6  7  2  0  0  0
  6  8  1  0  0  0
 10 11  1  0  0  0
  7  5  1  0  0  0
 16 17  2  0  0  0
 16 18  1  0  0  0
 17 19  1  0  0  0
 18 21  2  0  0  0
 13 11  1  0  0  0
  5  4  1  0  0  0
  4  3  1  0  0  0
  3  2  1  0  0  0
  2  1  1  0  0  0
  1 14  1  0  0  0
 14 15  1  0  0  0
 15 21  1  0  0  0
 19 20  2  0  0  0
 19 22  1  0  0  0
 20 21  1  0  0  0
 20 23  1  0  0  0
 22 24  1  0  0  0
 23 25  1  0  0  0
M  END
> <minimizedAffinity>
-7.42491

> <CNNscore>
0.3528046608

> <CNNaffinity>
6.6273093224

> <CNN_VS>
2.3381457329

> <CNNaffinity_variance>
0.5391490459

$$$$
/media/chris/experiments/cd1a-new-docking/inputs/ligands/5j1a_ligand.pdb


 25 25  0  0  0  0  0  0  0  0999 V2000
  -47.5489   56.6784   65.9033 C   0  0  0  0  0  0  0  0  0  0  0  0
  -48.2461   58.0267   66.1377 C   0  0  0  0  0  0  0  0  0  0  0  0
  -49.3765   58.2208   65.1364 C   0  0  0  0  0  0  0  0  0  0  0  0
  -48.8148   58.8192   63.8463 C   0  0  0  0  0  0  0  0  0  0  0  0
  -49.0102   57.8448   62.6849 C   0  0  0  0  0  0  0  0  0  0  0  0
  -50.7386   57.6117   60.6762 C   0  0  0  0  0  0  0  0  0  0  0  0
  -50.4064   58.0813   62.1060 C   0  0  0  0  0  0  0  0  0  0  0  0
  -49.6731   57.0125   59.7453 C   0  0  0  0  0  0  0  0  0  0  0  0
  -49.4869   57.9932   58.5784 C   0  0  0  0  0  0  0  0  0  0  0  0
  -48.2042   58.8445   58.4209 C   0  0  0  0  0  0  0  0  0  0  0  0
  -47.0261   58.7290   59.4079 C   0  0  0  0  0  0  0  0  0  0  0  0
  -46.2038   57.6180   57.2822 C   0  0  0  0  0  0  0  0  0  0  0  0
  -46.0045   57.7626   58.7929 C   0  0  0  0  0  0  0  0  0  0  0  0
  -46.0063   56.7521   66.0449 C   0  0  0  0  0  0  0  0  0  0  0  0
  -45.4205   58.1181   65.6163 C   0  0  0  0  0  0  0  0  0  0  0  0
  -44.2562   58.1040   62.0950 C   0  0  0  0  0  0  0  0  0  0  0  0
  -42.8966   57.7957   62.2350 C   0  0  0  0  0  0  0  0  0  0  0  0
  -45.0787   58.2038   63.2234 C   0  0  0  0  0  0  0  0  0  0  0  0
  -42.3827   57.5951   63.5159 C   0  0  0  0  0  0  0  0  0  0  0  0
  -43.2057   57.7037   64.6357 C   0  0  0  0  0  0  0  0  0  0  0  0
  -44.5606   58.0368   64.5125 C   0  0  0  0  0  0  0  0  0  0  0  0
  -41.0801   57.2911   63.7362 O   0  0  0  0  0  0  0  0  0  0  0  0
  -42.6573   57.5067   65.8695 O   0  0  0  0  0  0  0  0  0  0  0  0
  -40.4897   57.2078   63.0134 H   0  0  0  0  0  0  0  0  0  0  0  0
  -41.7508   57.2839   65.9492 H   0  0  0  0  0  0  0  0  0  0  0  0
 12 13  1  0  0  0
  9 10  2  0  0  0
  9  8  1  0  0  0
  6  7  2  0  0  0
  6  8  1  0  0  0
 10 11  1  0  0  0
  7  5  1  0  0  0
 16 17  2  0  0  0
 16 18  1  0  0  0
 17 19  1  0  0  0
 18 21  2  0  0  0
 13 11  1  0  0  0
  5  4  1  0  0  0
  4  3  1  0  0  0
  3  2  1  0  0  0
  2  1  1  0  0  0
  1 14  1  0  0  0
 14 15  1  0  0  0
 15 21  1  0  0  0
 19 20  2  0  0  0
 19 22  1  0  0  0
 20 21  1  0  0  0
 20 23  1  0  0  0
 22 24  1  0  0  0
 23 25  1  0  0  0
M  END
> <minimizedAffinity>
-7.53498

> <CNNscore>
0.3513312638

> <CNNaffinity>
6.4104332924

> <CNN_VS>
2.2521855831

> <CNNaffinity_variance>
0.2240910232

$$$$
/media/chris/experiments/cd1a-new-docking/inputs/ligands/5j1a_ligand.pdb


 25 25  0  0  0  0  0  0  0  0999 V2000
  -46.5232   61.0525   61.1167 C   0  0  0  0  0  0  0  0  0  0  0  0
  -46.8523   60.0096   62.1951 C   0  0  0  0  0  0  0  0  0  0  0  0
  -48.3554   59.9434   62.4282 C   0  0  0  0  0  0  0  0  0  0  0  0
  -48.7707   58.4892   62.6539 C   0  0  0  0  0  0  0  0  0  0  0  0
  -50.2784   58.4025   62.8898 C   0  0  0  0  0  0  0  0  0  0  0  0
  -50.9117   60.3408   64.5982 C   0  0  0  0  0  0  0  0  0  0  0  0
  -50.7927   59.8191   63.1529 C   0  0  0  0  0  0  0  0  0  0  0  0
  -50.6452   59.4417   65.8154 C   0  0  0  0  0  0  0  0  0  0  0  0
  -49.2260   59.7567   66.3100 C   0  0  0  0  0  0  0  0  0  0  0  0
  -48.1222   58.6740   66.3748 C   0  0  0  0  0  0  0  0  0  0  0  0
  -48.3763   57.2259   65.9121 C   0  0  0  0  0  0  0  0  0  0  0  0
  -46.2985   57.1054   67.3601 C   0  0  0  0  0  0  0  0  0  0  0  0
  -47.1440   56.3969   66.2990 C   0  0  0  0  0  0  0  0  0  0  0  0
  -47.6230   61.1812   60.0311 C   0  0  0  0  0  0  0  0  0  0  0  0
  -47.3684   60.2829   58.7976 C   0  0  0  0  0  0  0  0  0  0  0  0
  -49.9723   57.6721   59.1967 C   0  0  0  0  0  0  0  0  0  0  0  0
  -49.2130   56.4946   59.1900 C   0  0  0  0  0  0  0  0  0  0  0  0
  -49.3467   58.9180   59.0692 C   0  0  0  0  0  0  0  0  0  0  0  0
  -47.8286   56.5900   59.0506 C   0  0  0  0  0  0  0  0  0  0  0  0
  -47.2129   57.8333   58.9164 C   0  0  0  0  0  0  0  0  0  0  0  0
  -47.9617   59.0169   58.8952 C   0  0  0  0  0  0  0  0  0  0  0  0
  -47.0234   55.4995   59.0372 O   0  0  0  0  0  0  0  0  0  0  0  0
  -45.8564   57.8774   58.7749 O   0  0  0  0  0  0  0  0  0  0  0  0
  -47.3932   54.6429   59.1245 H   0  0  0  0  0  0  0  0  0  0  0  0
  -45.3579   57.0843   58.7893 H   0  0  0  0  0  0  0  0  0  0  0  0
 12 13  1  0  0  0
  9 10  2  0  0  0
  9  8  1  0  0  0
  6  7  2  0  0  0
  6  8  1  0  0  0
 10 11  1  0  0  0
  7  5  1  0  0  0
 16 17  2  0  0  0
 16 18  1  0  0  0
 17 19  1  0  0  0
 18 21  2  0  0  0
 13 11  1  0  0  0
  5  4  1  0  0  0
  4  3  1  0  0  0
  3  2  1  0  0  0
  2  1  1  0  0  0
  1 14  1  0  0  0
 14 15  1  0  0  0
 15 21  1  0  0  0
 19 20  2  0  0  0
 19 22  1  0  0  0
 20 21  1  0  0  0
 20 23  1  0  0  0
 22 24  1  0  0  0
 23 25  1  0  0  0
M  END
> <minimizedAffinity>
-7.83858

> <CNNscore>
0.3248885572

> <CNNaffinity>
6.4576797485

> <CNN_VS>
2.0980262756

> <CNNaffinity_variance>
0.2543320656

$$$$
/media/chris/experiments/cd1a-new-docking/inputs/ligands/5j1a_ligand.pdb


 25 25  0  0  0  0  0  0  0  0999 V2000
  -49.1161   59.6426   62.2390 C   0  0  0  0  0  0  0  0  0  0  0  0
  -50.6334   59.8224   62.3960 C   0  0  0  0  0  0  0  0  0  0  0  0
  -51.0222   59.7896   63.8677 C   0  0  0  0  0  0  0  0  0  0  0  0
  -49.8987   60.4038   64.7034 C   0  0  0  0  0  0  0  0  0  0  0  0
  -49.7429   59.6407   66.0187 C   0  0  0  0  0  0  0  0  0  0  0  0
  -48.5721   57.2644   65.7758 C   0  0  0  0  0  0  0  0  0  0  0  0
  -49.8343   58.1460   65.7056 C   0  0  0  0  0  0  0  0  0  0  0  0
  -47.1771   57.8546   66.0342 C   0  0  0  0  0  0  0  0  0  0  0  0
  -46.4330   57.8651   64.6910 C   0  0  0  0  0  0  0  0  0  0  0  0
  -45.8617   59.1677   64.0814 C   0  0  0  0  0  0  0  0  0  0  0  0
  -45.9767   60.5228   64.8067 C   0  0  0  0  0  0  0  0  0  0  0  0
  -45.3395   62.0247   62.8659 C   0  0  0  0  0  0  0  0  0  0  0  0
  -46.4715   61.5523   63.7816 C   0  0  0  0  0  0  0  0  0  0  0  0
  -48.7160   58.2439   61.7020 C   0  0  0  0  0  0  0  0  0  0  0  0
  -49.3304   57.9247   60.3186 C   0  0  0  0  0  0  0  0  0  0  0  0
  -46.8534   58.8404   57.7145 C   0  0  0  0  0  0  0  0  0  0  0  0
  -46.5112   57.5911   57.1804 C   0  0  0  0  0  0  0  0  0  0  0  0
  -47.7905   58.9343   58.7504 C   0  0  0  0  0  0  0  0  0  0  0  0
  -47.1182   56.4492   57.7028 C   0  0  0  0  0  0  0  0  0  0  0  0
  -48.0446   56.5492   58.7395 C   0  0  0  0  0  0  0  0  0  0  0  0
  -48.3768   57.7890   59.3006 C   0  0  0  0  0  0  0  0  0  0  0  0
  -46.8439   55.2049   57.2400 O   0  0  0  0  0  0  0  0  0  0  0  0
  -48.6071   55.4044   59.2240 O   0  0  0  0  0  0  0  0  0  0  0  0
  -46.2275   55.0893   56.5438 H   0  0  0  0  0  0  0  0  0  0  0  0
  -48.3832   54.5764   58.8470 H   0  0  0  0  0  0  0  0  0  0  0  0
 12 13  1  0  0  0
  9 10  2  0  0  0
  9  8  1  0  0  0
  6  7  2  0  0  0
  6  8  1  0  0  0
 10 11  1  0  0  0
  7  5  1  0  0  0
 16 17  2  0  0  0
 16 18  1  0  0  0
 17 19  1  0  0  0
 18 21  2  0  0  0
 13 11  1  0  0  0
  5  4  1  0  0  0
  4  3  1  0  0  0
  3  2  1  0  0  0
  2  1  1  0  0  0
  1 14  1  0  0  0
 14 15  1  0  0  0
 15 21  1  0  0  0
 19 20  2  0  0  0
 19 22  1  0  0  0
 20 21  1  0  0  0
 20 23  1  0  0  0
 22 24  1  0  0  0
 23 25  1  0  0  0
M  END
> <minimizedAffinity>
-7.61160

> <CNNscore>
0.3247959614

> <CNNaffinity>
6.6524610519

> <CNN_VS>
2.1606924534

> <CNNaffinity_variance>
0.0769732594

$$$$
