/media/chris/experiments/cd1a-new-docking/inputs/ligands/5j1a_ligand.pdb


 25 25  0  0  0  0  0  0  0  0999 V2000
  -49.9962   59.4074   66.1534 C   0  0  0  0  0  0  0  0  0  0  0  0
  -50.2981   58.8191   64.7670 C   0  0  0  0  0  0  0  0  0  0  0  0
  -50.6045   59.9316   63.7737 C   0  0  0  0  0  0  0  0  0  0  0  0
  -51.1128   59.3202   62.4676 C   0  0  0  0  0  0  0  0  0  0  0  0
  -50.3474   58.0346   62.1549 C   0  0  0  0  0  0  0  0  0  0  0  0
  -49.8945   57.8054   59.5437 C   0  0  0  0  0  0  0  0  0  0  0  0
  -50.7897   57.5517   60.7724 C   0  0  0  0  0  0  0  0  0  0  0  0
  -48.6098   58.6437   59.6286 C   0  0  0  0  0  0  0  0  0  0  0  0
  -47.4514   57.6723   59.8986 C   0  0  0  0  0  0  0  0  0  0  0  0
  -46.4047   57.3241   58.8132 C   0  0  0  0  0  0  0  0  0  0  0  0
  -46.4463   57.9610   57.4103 C   0  0  0  0  0  0  0  0  0  0  0  0
  -47.1962   55.5994   56.8733 C   0  0  0  0  0  0  0  0  0  0  0  0
  -47.3506   57.0838   56.5339 C   0  0  0  0  0  0  0  0  0  0  0  0
  -48.5146   59.2428   66.5806 C   0  0  0  0  0  0  0  0  0  0  0  0
  -47.7264   58.2639   65.6785 C   0  0  0  0  0  0  0  0  0  0  0  0
  -44.3974   59.8968   65.7630 C   0  0  0  0  0  0  0  0  0  0  0  0
  -43.5317   58.7980   65.8428 C   0  0  0  0  0  0  0  0  0  0  0  0
  -45.7828   59.7033   65.7059 C   0  0  0  0  0  0  0  0  0  0  0  0
  -44.0773   57.5146   65.8678 C   0  0  0  0  0  0  0  0  0  0  0  0
  -45.4580   57.3294   65.8186 C   0  0  0  0  0  0  0  0  0  0  0  0
  -46.3362   58.4192   65.7649 C   0  0  0  0  0  0  0  0  0  0  0  0
  -43.3088   56.4004   65.9413 O   0  0  0  0  0  0  0  0  0  0  0  0
  -45.9467   56.0559   65.8535 O   0  0  0  0  0  0  0  0  0  0  0  0
  -42.3755   56.4765   65.9764 H   0  0  0  0  0  0  0  0  0  0  0  0
  -45.3570   55.3287   65.8894 H   0  0  0  0  0  0  0  0  0  0  0  0
 12 13  1  0  0  0
  9 10  2  0  0  0
  9  8  1  0  0  0
  6  7  2  0  0  0
  6  8  1  0  0  0
 10 11  1  0  0  0
  7  5  1  0  0  0
 16 17  2  0  0  0
 16 18  1  0  0  0
 17 19  1  0  0  0
 18 21  2  0  0  0
 13 11  1  0  0  0
  5  4  1  0  0  0
  4  3  1  0  0  0
  3  2  1  0  0  0
  2  1  1  0  0  0
  1 14  1  0  0  0
 14 15  1  0  0  0
 15 21  1  0  0  0
 19 20  2  0  0  0
 19 22  1  0  0  0
 20 21  1  0  0  0
 20 23  1  0  0  0
 22 24  1  0  0  0
 23 25  1  0  0  0
M  END
> <minimizedAffinity>
-8.25282

> <CNNscore>
0.6616777778

> <CNNaffinity>
6.7619423866

> <CNN_VS>
4.4742269516

> <CNNaffinity_variance>
0.5357850790

$$$$
/media/chris/experiments/cd1a-new-docking/inputs/ligands/5j1a_ligand.pdb


 25 25  0  0  0  0  0  0  0  0999 V2000
  -48.7876   58.5487   63.8068 C   0  0  0  0  0  0  0  0  0  0  0  0
  -50.2161   58.5984   63.2445 C   0  0  0  0  0  0  0  0  0  0  0  0
  -50.1880   58.8754   61.7477 C   0  0  0  0  0  0  0  0  0  0  0  0
  -50.8360   57.7076   61.0030 C   0  0  0  0  0  0  0  0  0  0  0  0
  -50.0719   57.4177   59.7113 C   0  0  0  0  0  0  0  0  0  0  0  0
  -48.2508   55.6814   58.8480 C   0  0  0  0  0  0  0  0  0  0  0  0
  -49.2254   56.1643   59.9401 C   0  0  0  0  0  0  0  0  0  0  0  0
  -48.1788   56.3475   57.4654 C   0  0  0  0  0  0  0  0  0  0  0  0
  -46.7207   56.7751   57.2433 C   0  0  0  0  0  0  0  0  0  0  0  0
  -46.2432   58.2236   57.5048 C   0  0  0  0  0  0  0  0  0  0  0  0
  -47.1977   59.3102   58.0374 C   0  0  0  0  0  0  0  0  0  0  0  0
  -45.8769   58.4648   60.0297 C   0  0  0  0  0  0  0  0  0  0  0  0
  -47.0016   59.3894   59.5575 C   0  0  0  0  0  0  0  0  0  0  0  0
  -47.8193   59.5402   63.1110 C   0  0  0  0  0  0  0  0  0  0  0  0
  -46.8203   60.2024   64.0891 C   0  0  0  0  0  0  0  0  0  0  0  0
  -45.1836   62.4406   61.6259 C   0  0  0  0  0  0  0  0  0  0  0  0
  -43.8503   62.4284   62.0565 C   0  0  0  0  0  0  0  0  0  0  0  0
  -46.1538   61.6959   62.3072 C   0  0  0  0  0  0  0  0  0  0  0  0
  -43.5134   61.6657   63.1745 C   0  0  0  0  0  0  0  0  0  0  0  0
  -44.4859   60.9328   63.8529 C   0  0  0  0  0  0  0  0  0  0  0  0
  -45.8270   60.9562   63.4493 C   0  0  0  0  0  0  0  0  0  0  0  0
  -42.2467   61.5988   63.6528 O   0  0  0  0  0  0  0  0  0  0  0  0
  -44.1113   60.2075   64.9462 O   0  0  0  0  0  0  0  0  0  0  0  0
  -41.5602   62.0750   63.2288 H   0  0  0  0  0  0  0  0  0  0  0  0
  -43.2135   60.1936   65.2140 H   0  0  0  0  0  0  0  0  0  0  0  0
 12 13  1  0  0  0
  9 10  2  0  0  0
  9  8  1  0  0  0
  6  7  2  0  0  0
  6  8  1  0  0  0
 10 11  1  0  0  0
  7  5  1  0  0  0
 16 17  2  0  0  0
 16 18  1  0  0  0
 17 19  1  0  0  0
 18 21  2  0  0  0
 13 11  1  0  0  0
  5  4  1  0  0  0
  4  3  1  0  0  0
  3  2  1  0  0  0
  2  1  1  0  0  0
  1 14  1  0  0  0
 14 15  1  0  0  0
 15 21  1  0  0  0
 19 20  2  0  0  0
 19 22  1  0  0  0
 20 21  1  0  0  0
 20 23  1  0  0  0
 22 24  1  0  0  0
 23 25  1  0  0  0
M  END
> <minimizedAffinity>
-7.83379

> <CNNscore>
0.5981855392

> <CNNaffinity>
6.3997344971

> <CNN_VS>
3.8282287121

> <CNNaffinity_variance>
0.1403770000

$$$$
/media/chris/experiments/cd1a-new-docking/inputs/ligands/5j1a_ligand.pdb


 25 25  0  0  0  0  0  0  0  0999 V2000
  -46.9835   57.8632   65.6834 C   0  0  0  0  0  0  0  0  0  0  0  0
  -48.2598   57.7213   64.8406 C   0  0  0  0  0  0  0  0  0  0  0  0
  -49.4910   58.0056   65.6900 C   0  0  0  0  0  0  0  0  0  0  0  0
  -49.5403   59.4956   66.0297 C   0  0  0  0  0  0  0  0  0  0  0  0
  -49.6141   60.3259   64.7484 C   0  0  0  0  0  0  0  0  0  0  0  0
  -50.8021   59.6808   62.4574 C   0  0  0  0  0  0  0  0  0  0  0  0
  -50.8658   59.8936   63.9825 C   0  0  0  0  0  0  0  0  0  0  0  0
  -49.5430   60.0063   61.6394 C   0  0  0  0  0  0  0  0  0  0  0  0
  -48.7405   58.7039   61.5043 C   0  0  0  0  0  0  0  0  0  0  0  0
  -47.5398   58.5785   60.5362 C   0  0  0  0  0  0  0  0  0  0  0  0
  -47.0598   59.7660   59.6790 C   0  0  0  0  0  0  0  0  0  0  0  0
  -46.2359   57.9987   58.0584 C   0  0  0  0  0  0  0  0  0  0  0  0
  -47.0315   59.2965   58.2181 C   0  0  0  0  0  0  0  0  0  0  0  0
  -45.7994   58.4908   64.9032 C   0  0  0  0  0  0  0  0  0  0  0  0
  -45.5792   59.9865   65.2310 C   0  0  0  0  0  0  0  0  0  0  0  0
  -46.3941   62.1362   62.3207 C   0  0  0  0  0  0  0  0  0  0  0  0
  -45.1336   62.3446   61.7456 C   0  0  0  0  0  0  0  0  0  0  0  0
  -46.5254   61.3505   63.4720 C   0  0  0  0  0  0  0  0  0  0  0  0
  -44.0182   61.7588   62.3439 C   0  0  0  0  0  0  0  0  0  0  0  0
  -44.1550   60.9841   63.4947 C   0  0  0  0  0  0  0  0  0  0  0  0
  -45.4053   60.7888   64.0951 C   0  0  0  0  0  0  0  0  0  0  0  0
  -42.7654   61.9097   61.8485 O   0  0  0  0  0  0  0  0  0  0  0  0
  -43.0348   60.4373   64.0496 O   0  0  0  0  0  0  0  0  0  0  0  0
  -42.6255   62.4220   61.0766 H   0  0  0  0  0  0  0  0  0  0  0  0
  -42.1996   60.5696   63.6459 H   0  0  0  0  0  0  0  0  0  0  0  0
 12 13  1  0  0  0
  9 10  2  0  0  0
  9  8  1  0  0  0
  6  7  2  0  0  0
  6  8  1  0  0  0
 10 11  1  0  0  0
  7  5  1  0  0  0
 16 17  2  0  0  0
 16 18  1  0  0  0
 17 19  1  0  0  0
 18 21  2  0  0  0
 13 11  1  0  0  0
  5  4  1  0  0  0
  4  3  1  0  0  0
  3  2  1  0  0  0
  2  1  1  0  0  0
  1 14  1  0  0  0
 14 15  1  0  0  0
 15 21  1  0  0  0
 19 20  2  0  0  0
 19 22  1  0  0  0
 20 21  1  0  0  0
 20 23  1  0  0  0
 22 24  1  0  0  0
 23 25  1  0  0  0
M  END
> <minimizedAffinity>
-7.22006

> <CNNscore>
0.4603665471

> <CNNaffinity>
6.3507423401

> <CNN_VS>
2.9236693382

> <CNNaffinity_variance>
0.2387341708

$$$$
/media/chris/experiments/cd1a-new-docking/inputs/ligands/5j1a_ligand.pdb


 25 25  0  0  0  0  0  0  0  0999 V2000
  -50.2942   59.8301   62.3720 C   0  0  0  0  0  0  0  0  0  0  0  0
  -50.0978   58.5657   63.2217 C   0  0  0  0  0  0  0  0  0  0  0  0
  -50.3672   58.8658   64.6898 C   0  0  0  0  0  0  0  0  0  0  0  0
  -49.1655   58.4262   65.5268 C   0  0  0  0  0  0  0  0  0  0  0  0
  -48.6430   59.5996   66.3553 C   0  0  0  0  0  0  0  0  0  0  0  0
  -46.9270   60.9019   64.7948 C   0  0  0  0  0  0  0  0  0  0  0  0
  -48.3383   60.7509   65.3953 C   0  0  0  0  0  0  0  0  0  0  0  0
  -45.7580   60.0000   65.2198 C   0  0  0  0  0  0  0  0  0  0  0  0
  -45.5912   58.9302   64.1307 C   0  0  0  0  0  0  0  0  0  0  0  0
  -45.0734   57.5079   64.4525 C   0  0  0  0  0  0  0  0  0  0  0  0
  -44.7296   57.0745   65.8910 C   0  0  0  0  0  0  0  0  0  0  0  0
  -46.2510   57.3534   67.9000 C   0  0  0  0  0  0  0  0  0  0  0  0
  -46.0377   56.6372   66.5642 C   0  0  0  0  0  0  0  0  0  0  0  0
  -49.5970   59.7545   60.9889 C   0  0  0  0  0  0  0  0  0  0  0  0
  -49.4978   58.3133   60.4355 C   0  0  0  0  0  0  0  0  0  0  0  0
  -46.9947   59.1999   57.8463 C   0  0  0  0  0  0  0  0  0  0  0  0
  -46.6541   57.9455   57.3232 C   0  0  0  0  0  0  0  0  0  0  0  0
  -47.9400   59.3052   58.8735 C   0  0  0  0  0  0  0  0  0  0  0  0
  -47.2710   56.8100   57.8480 C   0  0  0  0  0  0  0  0  0  0  0  0
  -48.2055   56.9213   58.8763 C   0  0  0  0  0  0  0  0  0  0  0  0
  -48.5364   58.1662   59.4263 C   0  0  0  0  0  0  0  0  0  0  0  0
  -46.9988   55.5614   57.3957 O   0  0  0  0  0  0  0  0  0  0  0  0
  -48.7775   55.7824   59.3636 O   0  0  0  0  0  0  0  0  0  0  0  0
  -46.3771   55.4384   56.7056 H   0  0  0  0  0  0  0  0  0  0  0  0
  -48.5544   54.9508   58.9939 H   0  0  0  0  0  0  0  0  0  0  0  0
 12 13  1  0  0  0
  9 10  2  0  0  0
  9  8  1  0  0  0
  6  7  2  0  0  0
  6  8  1  0  0  0
 10 11  1  0  0  0
  7  5  1  0  0  0
 16 17  2  0  0  0
 16 18  1  0  0  0
 17 19  1  0  0  0
 18 21  2  0  0  0
 13 11  1  0  0  0
  5  4  1  0  0  0
  4  3  1  0  0  0
  3  2  1  0  0  0
  2  1  1  0  0  0
  1 14  1  0  0  0
 14 15  1  0  0  0
 15 21  1  0  0  0
 19 20  2  0  0  0
 19 22  1  0  0  0
 20 21  1  0  0  0
 20 23  1  0  0  0
 22 24  1  0  0  0
 23 25  1  0  0  0
M  END
> <minimizedAffinity>
-7.54272

> <CNNscore>
0.4539556503

> <CNNaffinity>
6.6687917709

> <CNN_VS>
3.0273356438

> <CNNaffinity_variance>
0.2303169072

$$$$
/media/chris/experiments/cd1a-new-docking/inputs/ligands/5j1a_ligand.pdb


 25 25  0  0  0  0  0  0  0  0999 V2000
  -50.6214   58.3309   61.8219 C   0  0  0  0  0  0  0  0  0  0  0  0
  -51.0737   59.6393   62.4872 C   0  0  0  0  0  0  0  0  0  0  0  0
  -50.4227   59.7917   63.8551 C   0  0  0  0  0  0  0  0  0  0  0  0
  -49.8385   58.4478   64.2919 C   0  0  0  0  0  0  0  0  0  0  0  0
  -49.7644   58.3764   65.8170 C   0  0  0  0  0  0  0  0  0  0  0  0
  -47.9801   60.2241   66.5084 C   0  0  0  0  0  0  0  0  0  0  0  0
  -49.4458   59.7797   66.3359 C   0  0  0  0  0  0  0  0  0  0  0  0
  -46.8036   59.2600   66.2922 C   0  0  0  0  0  0  0  0  0  0  0  0
  -45.7458   60.0121   65.4714 C   0  0  0  0  0  0  0  0  0  0  0  0
  -45.5495   59.7562   63.9579 C   0  0  0  0  0  0  0  0  0  0  0  0
  -46.4297   58.7570   63.1819 C   0  0  0  0  0  0  0  0  0  0  0  0
  -46.2909   60.4022   61.2578 C   0  0  0  0  0  0  0  0  0  0  0  0
  -46.1285   58.9425   61.6884 C   0  0  0  0  0  0  0  0  0  0  0  0
  -49.7127   58.5533   60.5851 C   0  0  0  0  0  0  0  0  0  0  0  0
  -49.5714   57.2929   59.6994 C   0  0  0  0  0  0  0  0  0  0  0  0
  -46.8856   58.7312   57.5844 C   0  0  0  0  0  0  0  0  0  0  0  0
  -46.4398   57.6107   56.8710 C   0  0  0  0  0  0  0  0  0  0  0  0
  -47.9252   58.6102   58.5142 C   0  0  0  0  0  0  0  0  0  0  0  0
  -47.0482   56.3784   57.1089 C   0  0  0  0  0  0  0  0  0  0  0  0
  -48.0774   56.2635   58.0420 C   0  0  0  0  0  0  0  0  0  0  0  0
  -48.5156   57.3698   58.7809 C   0  0  0  0  0  0  0  0  0  0  0  0
  -46.6772   55.2481   56.4590 O   0  0  0  0  0  0  0  0  0  0  0  0
  -48.6375   55.0363   58.2472 O   0  0  0  0  0  0  0  0  0  0  0  0
  -45.9896   55.2776   55.8231 H   0  0  0  0  0  0  0  0  0  0  0  0
  -48.3425   54.2979   57.7515 H   0  0  0  0  0  0  0  0  0  0  0  0
 12 13  1  0  0  0
  9 10  2  0  0  0
  9  8  1  0  0  0
  6  7  2  0  0  0
  6  8  1  0  0  0
 10 11  1  0  0  0
  7  5  1  0  0  0
 16 17  2  0  0  0
 16 18  1  0  0  0
 17 19  1  0  0  0
 18 21  2  0  0  0
 13 11  1  0  0  0
  5  4  1  0  0  0
  4  3  1  0  0  0
  3  2  1  0  0  0
  2  1  1  0  0  0
  1 14  1  0  0  0
 14 15  1  0  0  0
 15 21  1  0  0  0
 19 20  2  0  0  0
 19 22  1  0  0  0
 20 21  1  0  0  0
 20 23  1  0  0  0
 22 24  1  0  0  0
 23 25  1  0  0  0
M  END
> <minimizedAffinity>
-8.08875

> <CNNscore>
0.4474325180

> <CNNaffinity>
6.8084802628

> <CNN_VS>
3.0463354588

> <CNNaffinity_variance>
0.0931814015

$$$$
/media/chris/experiments/cd1a-new-docking/inputs/ligands/5j1a_ligand.pdb


 25 25  0  0  0  0  0  0  0  0999 V2000
  -47.8516   61.2684   60.8359 C   0  0  0  0  0  0  0  0  0  0  0  0
  -46.3193   61.2576   60.9420 C   0  0  0  0  0  0  0  0  0  0  0  0
  -45.8776   61.7878   62.2992 C   0  0  0  0  0  0  0  0  0  0  0  0
  -45.1816   60.6713   63.0783 C   0  0  0  0  0  0  0  0  0  0  0  0
  -46.1986   59.9075   63.9261 C   0  0  0  0  0  0  0  0  0  0  0  0
  -48.3295   60.8119   65.2366 C   0  0  0  0  0  0  0  0  0  0  0  0
  -46.8261   60.8980   64.9086 C   0  0  0  0  0  0  0  0  0  0  0  0
  -49.2679   59.8326   64.5149 C   0  0  0  0  0  0  0  0  0  0  0  0
  -49.9195   58.9522   65.5913 C   0  0  0  0  0  0  0  0  0  0  0  0
  -49.2768   57.6263   66.0641 C   0  0  0  0  0  0  0  0  0  0  0  0
  -47.9275   57.1330   65.5061 C   0  0  0  0  0  0  0  0  0  0  0  0
  -46.6686   58.1808   67.4414 C   0  0  0  0  0  0  0  0  0  0  0  0
  -46.9995   56.8819   66.7024 C   0  0  0  0  0  0  0  0  0  0  0  0
  -48.4773   59.8495   60.8419 C   0  0  0  0  0  0  0  0  0  0  0  0
  -49.0922   59.4499   59.4798 C   0  0  0  0  0  0  0  0  0  0  0  0
  -46.4309   58.2536   57.1903 C   0  0  0  0  0  0  0  0  0  0  0  0
  -46.6795   56.8755   57.1434 C   0  0  0  0  0  0  0  0  0  0  0  0
  -47.2405   59.0925   57.9654 C   0  0  0  0  0  0  0  0  0  0  0  0
  -47.7426   56.3601   57.8846 C   0  0  0  0  0  0  0  0  0  0  0  0
  -48.5399   57.1999   58.6605 C   0  0  0  0  0  0  0  0  0  0  0  0
  -48.2871   58.5755   58.7372 C   0  0  0  0  0  0  0  0  0  0  0  0
  -48.0505   55.0399   57.8909 O   0  0  0  0  0  0  0  0  0  0  0  0
  -49.5639   56.6500   59.3750 O   0  0  0  0  0  0  0  0  0  0  0  0
  -47.5419   54.4378   57.3842 H   0  0  0  0  0  0  0  0  0  0  0  0
  -49.7309   55.7295   59.3219 H   0  0  0  0  0  0  0  0  0  0  0  0
 12 13  1  0  0  0
  9 10  2  0  0  0
  9  8  1  0  0  0
  6  7  2  0  0  0
  6  8  1  0  0  0
 10 11  1  0  0  0
  7  5  1  0  0  0
 16 17  2  0  0  0
 16 18  1  0  0  0
 17 19  1  0  0  0
 18 21  2  0  0  0
 13 11  1  0  0  0
  5  4  1  0  0  0
  4  3  1  0  0  0
  3  2  1  0  0  0
  2  1  1  0  0  0
  1 14  1  0  0  0
 14 15  1  0  0  0
 15 21  1  0  0  0
 19 20  2  0  0  0
 19 22  1  0  0  0
 20 21  1  0  0  0
 20 23  1  0  0  0
 22 24  1  0  0  0
 23 25  1  0  0  0
M  END
> <minimizedAffinity>
-7.41310

> <CNNscore>
0.4102970362

> <CNNaffinity>
6.5369062424

> <CNN_VS>
2.6820733547

> <CNNaffinity_variance>
0.2764166594

$$$$
/media/chris/experiments/cd1a-new-docking/inputs/ligands/5j1a_ligand.pdb


 25 25  0  0  0  0  0  0  0  0999 V2000
  -49.3627   57.9401   61.7859 C   0  0  0  0  0  0  0  0  0  0  0  0
  -50.7873   58.4421   62.0642 C   0  0  0  0  0  0  0  0  0  0  0  0
  -50.7688   59.9233   62.4162 C   0  0  0  0  0  0  0  0  0  0  0  0
  -51.1777   60.1028   63.8785 C   0  0  0  0  0  0  0  0  0  0  0  0
  -49.9412   60.0879   64.7769 C   0  0  0  0  0  0  0  0  0  0  0  0
  -48.9092   57.9445   65.9672 C   0  0  0  0  0  0  0  0  0  0  0  0
  -50.0850   58.9172   65.7510 C   0  0  0  0  0  0  0  0  0  0  0  0
  -47.6161   58.0303   65.1419 C   0  0  0  0  0  0  0  0  0  0  0  0
  -46.6397   58.9241   65.9203 C   0  0  0  0  0  0  0  0  0  0  0  0
  -46.0797   60.2380   65.3247 C   0  0  0  0  0  0  0  0  0  0  0  0
  -46.4991   60.7413   63.9296 C   0  0  0  0  0  0  0  0  0  0  0  0
  -45.9071   62.5336   62.2369 C   0  0  0  0  0  0  0  0  0  0  0  0
  -45.4422   61.7547   63.4697 C   0  0  0  0  0  0  0  0  0  0  0  0
  -48.3806   59.0713   61.3849 C   0  0  0  0  0  0  0  0  0  0  0  0
  -48.5881   59.5718   59.9359 C   0  0  0  0  0  0  0  0  0  0  0  0
  -46.0518   57.9065   57.8029 C   0  0  0  0  0  0  0  0  0  0  0  0
  -46.8460   57.1119   56.9657 C   0  0  0  0  0  0  0  0  0  0  0  0
  -46.6436   58.7177   58.7785 C   0  0  0  0  0  0  0  0  0  0  0  0
  -48.2311   57.1434   57.1272 C   0  0  0  0  0  0  0  0  0  0  0  0
  -48.8133   57.9474   58.1058 C   0  0  0  0  0  0  0  0  0  0  0  0
  -48.0303   58.7270   58.9667 C   0  0  0  0  0  0  0  0  0  0  0  0
  -49.0687   56.4071   56.3567 O   0  0  0  0  0  0  0  0  0  0  0  0
  -50.1719   57.9401   58.2323 O   0  0  0  0  0  0  0  0  0  0  0  0
  -48.7220   55.8520   55.6861 H   0  0  0  0  0  0  0  0  0  0  0  0
  -50.6933   57.4177   57.6551 H   0  0  0  0  0  0  0  0  0  0  0  0
 12 13  1  0  0  0
  9 10  2  0  0  0
  9  8  1  0  0  0
  6  7  2  0  0  0
  6  8  1  0  0  0
 10 11  1  0  0  0
  7  5  1  0  0  0
 16 17  2  0  0  0
 16 18  1  0  0  0
 17 19  1  0  0  0
 18 21  2  0  0  0
 13 11  1  0  0  0
  5  4  1  0  0  0
  4  3  1  0  0  0
  3  2  1  0  0  0
  2  1  1  0  0  0
  1 14  1  0  0  0
 14 15  1  0  0  0
 15 21  1  0  0  0
 19 20  2  0  0  0
 19 22  1  0  0  0
 20 21  1  0  0  0
 20 23  1  0  0  0
 22 24  1  0  0  0
 23 25  1  0  0  0
M  END
> <minimizedAffinity>
-8.15139

> <CNNscore>
0.3295215666

> <CNNaffinity>
6.5854101181

> <CNN_VS>
2.1700346470

> <CNNaffinity_variance>
0.0960837156

$$$$
/media/chris/experiments/cd1a-new-docking/inputs/ligands/5j1a_ligand.pdb


 25 25  0  0  0  0  0  0  0  0999 V2000
  -48.9313   57.2882   58.3104 C   0  0  0  0  0  0  0  0  0  0  0  0
  -50.0093   58.3032   58.7189 C   0  0  0  0  0  0  0  0  0  0  0  0
  -50.6906   57.8640   60.0077 C   0  0  0  0  0  0  0  0  0  0  0  0
  -49.6466   57.2807   60.9605 C   0  0  0  0  0  0  0  0  0  0  0  0
  -49.7702   57.9300   62.3388 C   0  0  0  0  0  0  0  0  0  0  0  0
  -51.0829   60.0179   63.3356 C   0  0  0  0  0  0  0  0  0  0  0  0
  -50.9686   58.8800   62.3023 C   0  0  0  0  0  0  0  0  0  0  0  0
  -50.0887   60.1690   64.4972 C   0  0  0  0  0  0  0  0  0  0  0  0
  -50.4990   59.1598   65.5796 C   0  0  0  0  0  0  0  0  0  0  0  0
  -49.5130   58.1006   66.1276 C   0  0  0  0  0  0  0  0  0  0  0  0
  -48.0521   58.0226   65.6426 C   0  0  0  0  0  0  0  0  0  0  0  0
  -46.1301   58.9976   66.9780 C   0  0  0  0  0  0  0  0  0  0  0  0
  -47.1629   57.8720   66.8845 C   0  0  0  0  0  0  0  0  0  0  0  0
  -47.6846   57.9444   57.6624 C   0  0  0  0  0  0  0  0  0  0  0  0
  -47.4317   59.3887   58.1555 C   0  0  0  0  0  0  0  0  0  0  0  0
  -47.4340   60.5785   61.6683 C   0  0  0  0  0  0  0  0  0  0  0  0
  -46.4802   59.7425   62.2637 C   0  0  0  0  0  0  0  0  0  0  0  0
  -47.7350   60.4513   60.3070 C   0  0  0  0  0  0  0  0  0  0  0  0
  -45.8438   58.7834   61.4760 C   0  0  0  0  0  0  0  0  0  0  0  0
  -46.1541   58.6568   60.1229 C   0  0  0  0  0  0  0  0  0  0  0  0
  -47.1239   59.4683   59.5205 C   0  0  0  0  0  0  0  0  0  0  0  0
  -44.9084   57.9386   61.9749 O   0  0  0  0  0  0  0  0  0  0  0  0
  -45.5117   57.6993   59.3934 O   0  0  0  0  0  0  0  0  0  0  0  0
  -44.6680   57.9872   62.8792 H   0  0  0  0  0  0  0  0  0  0  0  0
  -44.8634   57.1578   59.7989 H   0  0  0  0  0  0  0  0  0  0  0  0
 12 13  1  0  0  0
  9 10  2  0  0  0
  9  8  1  0  0  0
  6  7  2  0  0  0
  6  8  1  0  0  0
 10 11  1  0  0  0
  7  5  1  0  0  0
 16 17  2  0  0  0
 16 18  1  0  0  0
 17 19  1  0  0  0
 18 21  2  0  0  0
 13 11  1  0  0  0
  5  4  1  0  0  0
  4  3  1  0  0  0
  3  2  1  0  0  0
  2  1  1  0  0  0
  1 14  1  0  0  0
 14 15  1  0  0  0
 15 21  1  0  0  0
 19 20  2  0  0  0
 19 22  1  0  0  0
 20 21  1  0  0  0
 20 23  1  0  0  0
 22 24  1  0  0  0
 23 25  1  0  0  0
M  END
> <minimizedAffinity>
-7.77291

> <CNNscore>
0.3287273347

> <CNNaffinity>
6.4453711510

> <CNN_VS>
2.1187696457

> <CNNaffinity_variance>
0.2000739574

$$$$
/media/chris/experiments/cd1a-new-docking/inputs/ligands/5j1a_ligand.pdb


 25 25  0  0  0  0  0  0  0  0999 V2000
  -46.2839   57.9578   57.6352 C   0  0  0  0  0  0  0  0  0  0  0  0
  -47.0317   57.1481   56.5653 C   0  0  0  0  0  0  0  0  0  0  0  0
  -48.0410   56.2127   57.2167 C   0  0  0  0  0  0  0  0  0  0  0  0
  -47.5411   55.8143   58.6058 C   0  0  0  0  0  0  0  0  0  0  0  0
  -48.6740   55.9270   59.6257 C   0  0  0  0  0  0  0  0  0  0  0  0
  -50.4836   57.8279   60.0593 C   0  0  0  0  0  0  0  0  0  0  0  0
  -49.6909   56.9342   59.0856 C   0  0  0  0  0  0  0  0  0  0  0  0
  -50.3830   57.6644   61.5837 C   0  0  0  0  0  0  0  0  0  0  0  0
  -50.7852   59.0071   62.2113 C   0  0  0  0  0  0  0  0  0  0  0  0
  -50.4375   59.3628   63.6767 C   0  0  0  0  0  0  0  0  0  0  0  0
  -49.6363   58.4028   64.5777 C   0  0  0  0  0  0  0  0  0  0  0  0
  -47.9596   60.2219   64.0229 C   0  0  0  0  0  0  0  0  0  0  0  0
  -48.1512   58.7561   64.4198 C   0  0  0  0  0  0  0  0  0  0  0  0
  -46.8919   59.3637   57.8773 C   0  0  0  0  0  0  0  0  0  0  0  0
  -47.4111   59.5616   59.3211 C   0  0  0  0  0  0  0  0  0  0  0  0
  -44.8108   58.3364   61.6647 C   0  0  0  0  0  0  0  0  0  0  0  0
  -44.3976   59.5193   62.2917 C   0  0  0  0  0  0  0  0  0  0  0  0
  -45.8116   58.3666   60.6862 C   0  0  0  0  0  0  0  0  0  0  0  0
  -44.9988   60.7213   61.9190 C   0  0  0  0  0  0  0  0  0  0  0  0
  -45.9892   60.7453   60.9383 C   0  0  0  0  0  0  0  0  0  0  0  0
  -46.3937   59.5743   60.2849 C   0  0  0  0  0  0  0  0  0  0  0  0
  -44.6578   61.9078   62.4789 O   0  0  0  0  0  0  0  0  0  0  0  0
  -46.5436   61.9455   60.6006 O   0  0  0  0  0  0  0  0  0  0  0  0
  -43.9969   61.9400   63.1423 H   0  0  0  0  0  0  0  0  0  0  0  0
  -46.2711   62.7274   61.0393 H   0  0  0  0  0  0  0  0  0  0  0  0
 12 13  1  0  0  0
  9 10  2  0  0  0
  9  8  1  0  0  0
  6  7  2  0  0  0
  6  8  1  0  0  0
 10 11  1  0  0  0
  7  5  1  0  0  0
 16 17  2  0  0  0
 16 18  1  0  0  0
 17 19  1  0  0  0
 18 21  2  0  0  0
 13 11  1  0  0  0
  5  4  1  0  0  0
  4  3  1  0  0  0
  3  2  1  0  0  0
  2  1  1  0  0  0
  1 14  1  0  0  0
 14 15  1  0  0  0
 15 21  1  0  0  0
 19 20  2  0  0  0
 19 22  1  0  0  0
 20 21  1  0  0  0
 20 23  1  0  0  0
 22 24  1  0  0  0
 23 25  1  0  0  0
M  END
> <minimizedAffinity>
-8.04959

> <CNNscore>
0.3180042207

> <CNNaffinity>
6.4186272621

> <CNN_VS>
2.0411505699

> <CNNaffinity_variance>
0.0338723138

$$$$
