/media/chris/experiments/cd1a-new-docking/inputs/ligands/5j1a_ligand.pdb


 25 25  0  0  0  0  0  0  0  0999 V2000
  -42.4645   61.7443   61.8636 C   0  0  0  0  0  0  0  0  0  0  0  0
  -43.8878   61.3360   62.2718 C   0  0  0  0  0  0  0  0  0  0  0  0
  -44.8915   62.3888   61.8219 C   0  0  0  0  0  0  0  0  0  0  0  0
  -46.2792   62.0264   62.3521 C   0  0  0  0  0  0  0  0  0  0  0  0
  -46.8459   60.8380   61.5757 C   0  0  0  0  0  0  0  0  0  0  0  0
  -48.8273   60.7237   59.8043 C   0  0  0  0  0  0  0  0  0  0  0  0
  -47.5344   61.3832   60.3231 C   0  0  0  0  0  0  0  0  0  0  0  0
  -49.3998   59.4437   60.4324 C   0  0  0  0  0  0  0  0  0  0  0  0
  -49.7669   58.4977   59.2797 C   0  0  0  0  0  0  0  0  0  0  0  0
  -48.7756   57.4376   58.7429 C   0  0  0  0  0  0  0  0  0  0  0  0
  -47.3759   57.2481   59.3599 C   0  0  0  0  0  0  0  0  0  0  0  0
  -46.1586   57.5565   57.1572 C   0  0  0  0  0  0  0  0  0  0  0  0
  -46.3989   58.1204   58.5598 C   0  0  0  0  0  0  0  0  0  0  0  0
  -41.3934   60.6833   62.2269 C   0  0  0  0  0  0  0  0  0  0  0  0
  -40.3472   60.4671   61.1080 C   0  0  0  0  0  0  0  0  0  0  0  0
  -39.5218   56.9511   61.9514 C   0  0  0  0  0  0  0  0  0  0  0  0
  -38.1532   56.8905   61.6571 C   0  0  0  0  0  0  0  0  0  0  0  0
  -40.2329   58.1429   61.7675 C   0  0  0  0  0  0  0  0  0  0  0  0
  -37.5192   58.0360   61.1762 C   0  0  0  0  0  0  0  0  0  0  0  0
  -38.2349   59.2171   60.9879 C   0  0  0  0  0  0  0  0  0  0  0  0
  -39.6086   59.2850   61.2533 C   0  0  0  0  0  0  0  0  0  0  0  0
  -36.1987   58.0607   60.8706 O   0  0  0  0  0  0  0  0  0  0  0  0
  -37.5744   60.3104   60.5080 O   0  0  0  0  0  0  0  0  0  0  0  0
  -35.6777   57.2898   60.9812 H   0  0  0  0  0  0  0  0  0  0  0  0
  -36.6554   60.2624   60.3314 H   0  0  0  0  0  0  0  0  0  0  0  0
 12 13  1  0  0  0
  9 10  2  0  0  0
  9  8  1  0  0  0
  6  7  2  0  0  0
  6  8  1  0  0  0
 10 11  1  0  0  0
  7  5  1  0  0  0
 16 17  2  0  0  0
 16 18  1  0  0  0
 17 19  1  0  0  0
 18 21  2  0  0  0
 13 11  1  0  0  0
  5  4  1  0  0  0
  4  3  1  0  0  0
  3  2  1  0  0  0
  2  1  1  0  0  0
  1 14  1  0  0  0
 14 15  1  0  0  0
 15 21  1  0  0  0
 19 20  2  0  0  0
 19 22  1  0  0  0
 20 21  1  0  0  0
 20 23  1  0  0  0
 22 24  1  0  0  0
 23 25  1  0  0  0
M  END
> <minimizedAffinity>
-8.11488

> <CNNscore>
0.6238633394

> <CNNaffinity>
6.1568136215

> <CNN_VS>
3.8410103321

> <CNNaffinity_variance>
0.1180525199

$$$$
/media/chris/experiments/cd1a-new-docking/inputs/ligands/5j1a_ligand.pdb


 25 25  0  0  0  0  0  0  0  0999 V2000
  -50.3819   58.3600   62.0093 C   0  0  0  0  0  0  0  0  0  0  0  0
  -51.1351   59.5655   62.5910 C   0  0  0  0  0  0  0  0  0  0  0  0
  -50.6851   59.8330   64.0207 C   0  0  0  0  0  0  0  0  0  0  0  0
  -50.0111   58.5811   64.5834 C   0  0  0  0  0  0  0  0  0  0  0  0
  -49.3103   58.9077   65.9020 C   0  0  0  0  0  0  0  0  0  0  0  0
  -46.8772   57.8448   65.7390 C   0  0  0  0  0  0  0  0  0  0  0  0
  -48.3419   57.7650   66.2123 C   0  0  0  0  0  0  0  0  0  0  0  0
  -46.3681   58.9885   64.8483 C   0  0  0  0  0  0  0  0  0  0  0  0
  -46.2145   58.4238   63.4285 C   0  0  0  0  0  0  0  0  0  0  0  0
  -46.7259   59.1875   62.1836 C   0  0  0  0  0  0  0  0  0  0  0  0
  -47.3867   60.5754   62.2966 C   0  0  0  0  0  0  0  0  0  0  0  0
  -45.8170   62.5296   61.9145 C   0  0  0  0  0  0  0  0  0  0  0  0
  -46.7228   61.4867   61.2551 C   0  0  0  0  0  0  0  0  0  0  0  0
  -49.9947   58.5390   60.5184 C   0  0  0  0  0  0  0  0  0  0  0  0
  -49.5631   57.2179   59.8389 C   0  0  0  0  0  0  0  0  0  0  0  0
  -46.9030   58.8420   57.8287 C   0  0  0  0  0  0  0  0  0  0  0  0
  -46.4513   57.7847   57.0277 C   0  0  0  0  0  0  0  0  0  0  0  0
  -47.9358   58.6391   58.7517 C   0  0  0  0  0  0  0  0  0  0  0  0
  -47.0473   56.5320   57.1719 C   0  0  0  0  0  0  0  0  0  0  0  0
  -48.0697   56.3350   58.0985 C   0  0  0  0  0  0  0  0  0  0  0  0
  -48.5136   57.3761   58.9238 C   0  0  0  0  0  0  0  0  0  0  0  0
  -46.6700   55.4594   56.4338 O   0  0  0  0  0  0  0  0  0  0  0  0
  -48.6177   55.0904   58.2103 O   0  0  0  0  0  0  0  0  0  0  0  0
  -45.9865   55.5447   55.7986 H   0  0  0  0  0  0  0  0  0  0  0  0
  -48.3190   54.3956   57.6569 H   0  0  0  0  0  0  0  0  0  0  0  0
 12 13  1  0  0  0
  9 10  2  0  0  0
  9  8  1  0  0  0
  6  7  2  0  0  0
  6  8  1  0  0  0
 10 11  1  0  0  0
  7  5  1  0  0  0
 16 17  2  0  0  0
 16 18  1  0  0  0
 17 19  1  0  0  0
 18 21  2  0  0  0
 13 11  1  0  0  0
  5  4  1  0  0  0
  4  3  1  0  0  0
  3  2  1  0  0  0
  2  1  1  0  0  0
  1 14  1  0  0  0
 14 15  1  0  0  0
 15 21  1  0  0  0
 19 20  2  0  0  0
 19 22  1  0  0  0
 20 21  1  0  0  0
 20 23  1  0  0  0
 22 24  1  0  0  0
 23 25  1  0  0  0
M  END
> <minimizedAffinity>
-7.78284

> <CNNscore>
0.6062501073

> <CNNaffinity>
7.0287461281

> <CNN_VS>
4.2611780167

> <CNNaffinity_variance>
0.1120846048

$$$$
/media/chris/experiments/cd1a-new-docking/inputs/ligands/5j1a_ligand.pdb


 25 25  0  0  0  0  0  0  0  0999 V2000
  -48.5874   56.8422   57.6124 C   0  0  0  0  0  0  0  0  0  0  0  0
  -48.0343   55.7176   58.5003 C   0  0  0  0  0  0  0  0  0  0  0  0
  -48.5650   55.8533   59.9209 C   0  0  0  0  0  0  0  0  0  0  0  0
  -49.5352   57.0331   59.9899 C   0  0  0  0  0  0  0  0  0  0  0  0
  -49.6465   57.5401   61.4276 C   0  0  0  0  0  0  0  0  0  0  0  0
  -50.8879   59.6069   62.5517 C   0  0  0  0  0  0  0  0  0  0  0  0
  -50.8503   58.4813   61.4995 C   0  0  0  0  0  0  0  0  0  0  0  0
  -49.8036   59.7529   63.6303 C   0  0  0  0  0  0  0  0  0  0  0  0
  -50.5095   59.7007   64.9932 C   0  0  0  0  0  0  0  0  0  0  0  0
  -50.1592   58.6324   66.0565 C   0  0  0  0  0  0  0  0  0  0  0  0
  -49.0560   57.5823   65.8205 C   0  0  0  0  0  0  0  0  0  0  0  0
  -46.6001   58.1602   65.5698 C   0  0  0  0  0  0  0  0  0  0  0  0
  -47.7891   58.0790   66.5303 C   0  0  0  0  0  0  0  0  0  0  0  0
  -47.4906   57.5801   56.8017 C   0  0  0  0  0  0  0  0  0  0  0  0
  -46.2828   58.0133   57.6661 C   0  0  0  0  0  0  0  0  0  0  0  0
  -47.6940   60.9802   59.3869 C   0  0  0  0  0  0  0  0  0  0  0  0
  -47.2610   60.7901   60.7059 C   0  0  0  0  0  0  0  0  0  0  0  0
  -47.3591   60.0541   58.3918 C   0  0  0  0  0  0  0  0  0  0  0  0
  -46.4964   59.6625   61.0048 C   0  0  0  0  0  0  0  0  0  0  0  0
  -46.1733   58.7403   60.0109 C   0  0  0  0  0  0  0  0  0  0  0  0
  -46.6211   58.9040   58.6938 C   0  0  0  0  0  0  0  0  0  0  0  0
  -46.0369   59.4074   62.2544 O   0  0  0  0  0  0  0  0  0  0  0  0
  -45.4298   57.6480   60.3515 O   0  0  0  0  0  0  0  0  0  0  0  0
  -46.2296   59.9997   62.9544 H   0  0  0  0  0  0  0  0  0  0  0  0
  -45.1314   57.5408   61.2332 H   0  0  0  0  0  0  0  0  0  0  0  0
 12 13  1  0  0  0
  9 10  2  0  0  0
  9  8  1  0  0  0
  6  7  2  0  0  0
  6  8  1  0  0  0
 10 11  1  0  0  0
  7  5  1  0  0  0
 16 17  2  0  0  0
 16 18  1  0  0  0
 17 19  1  0  0  0
 18 21  2  0  0  0
 13 11  1  0  0  0
  5  4  1  0  0  0
  4  3  1  0  0  0
  3  2  1  0  0  0
  2  1  1  0  0  0
  1 14  1  0  0  0
 14 15  1  0  0  0
 15 21  1  0  0  0
 19 20  2  0  0  0
 19 22  1  0  0  0
 20 21  1  0  0  0
 20 23  1  0  0  0
 22 24  1  0  0  0
 23 25  1  0  0  0
M  END
> <minimizedAffinity>
-8.00260

> <CNNscore>
0.5936214328

> <CNNaffinity>
6.7105536461

> <CNN_VS>
3.9835283756

> <CNNaffinity_variance>
0.1642068177

$$$$
/media/chris/experiments/cd1a-new-docking/inputs/ligands/5j1a_ligand.pdb


 25 25  0  0  0  0  0  0  0  0999 V2000
  -50.5971   58.2796   61.7218 C   0  0  0  0  0  0  0  0  0  0  0  0
  -51.1149   59.5349   62.4395 C   0  0  0  0  0  0  0  0  0  0  0  0
  -50.4478   59.6816   63.8002 C   0  0  0  0  0  0  0  0  0  0  0  0
  -49.3675   58.6104   63.9540 C   0  0  0  0  0  0  0  0  0  0  0  0
  -49.4210   58.0060   65.3569 C   0  0  0  0  0  0  0  0  0  0  0  0
  -48.4588   60.0219   66.8014 C   0  0  0  0  0  0  0  0  0  0  0  0
  -49.6452   59.1479   66.3498 C   0  0  0  0  0  0  0  0  0  0  0  0
  -47.0127   59.7150   66.3828 C   0  0  0  0  0  0  0  0  0  0  0  0
  -46.4165   58.7910   67.4547 C   0  0  0  0  0  0  0  0  0  0  0  0
  -45.9330   57.3587   67.1243 C   0  0  0  0  0  0  0  0  0  0  0  0
  -45.9900   56.7920   65.6921 C   0  0  0  0  0  0  0  0  0  0  0  0
  -43.5321   56.9648   66.2898 C   0  0  0  0  0  0  0  0  0  0  0  0
  -44.5548   56.4357   65.2813 C   0  0  0  0  0  0  0  0  0  0  0  0
  -50.1936   58.5381   60.2470 C   0  0  0  0  0  0  0  0  0  0  0  0
  -49.8425   57.2433   59.4764 C   0  0  0  0  0  0  0  0  0  0  0  0
  -46.9422   58.7667   57.7377 C   0  0  0  0  0  0  0  0  0  0  0  0
  -46.4196   57.6784   57.0265 C   0  0  0  0  0  0  0  0  0  0  0  0
  -48.0774   58.6072   58.5414 C   0  0  0  0  0  0  0  0  0  0  0  0
  -47.0492   56.4389   57.1390 C   0  0  0  0  0  0  0  0  0  0  0  0
  -48.1744   56.2854   57.9471 C   0  0  0  0  0  0  0  0  0  0  0  0
  -48.6924   57.3582   58.6839 C   0  0  0  0  0  0  0  0  0  0  0  0
  -46.6080   55.3383   56.4821 O   0  0  0  0  0  0  0  0  0  0  0  0
  -48.7526   55.0523   58.0327 O   0  0  0  0  0  0  0  0  0  0  0  0
  -45.8548   55.3942   55.9275 H   0  0  0  0  0  0  0  0  0  0  0  0
  -48.4042   54.3363   57.5387 H   0  0  0  0  0  0  0  0  0  0  0  0
 12 13  1  0  0  0
  9 10  2  0  0  0
  9  8  1  0  0  0
  6  7  2  0  0  0
  6  8  1  0  0  0
 10 11  1  0  0  0
  7  5  1  0  0  0
 16 17  2  0  0  0
 16 18  1  0  0  0
 17 19  1  0  0  0
 18 21  2  0  0  0
 13 11  1  0  0  0
  5  4  1  0  0  0
  4  3  1  0  0  0
  3  2  1  0  0  0
  2  1  1  0  0  0
  1 14  1  0  0  0
 14 15  1  0  0  0
 15 21  1  0  0  0
 19 20  2  0  0  0
 19 22  1  0  0  0
 20 21  1  0  0  0
 20 23  1  0  0  0
 22 24  1  0  0  0
 23 25  1  0  0  0
M  END
> <minimizedAffinity>
-8.31562

> <CNNscore>
0.5606542826

> <CNNaffinity>
6.8785767555

> <CNN_VS>
3.8565034866

> <CNNaffinity_variance>
0.2110571414

$$$$
/media/chris/experiments/cd1a-new-docking/inputs/ligands/5j1a_ligand.pdb


 25 25  0  0  0  0  0  0  0  0999 V2000
  -48.2613   60.5914   65.3337 C   0  0  0  0  0  0  0  0  0  0  0  0
  -49.0517   59.8768   66.4398 C   0  0  0  0  0  0  0  0  0  0  0  0
  -50.2581   59.1586   65.8507 C   0  0  0  0  0  0  0  0  0  0  0  0
  -49.9418   58.7257   64.4187 C   0  0  0  0  0  0  0  0  0  0  0  0
  -50.8513   59.4596   63.4335 C   0  0  0  0  0  0  0  0  0  0  0  0
  -49.7230   59.0638   61.0572 C   0  0  0  0  0  0  0  0  0  0  0  0
  -50.7997   58.7091   62.1015 C   0  0  0  0  0  0  0  0  0  0  0  0
  -48.7559   60.2420   61.2494 C   0  0  0  0  0  0  0  0  0  0  0  0
  -48.1612   60.5701   59.8721 C   0  0  0  0  0  0  0  0  0  0  0  0
  -46.8953   59.8596   59.3364 C   0  0  0  0  0  0  0  0  0  0  0  0
  -46.1807   58.7563   60.1412 C   0  0  0  0  0  0  0  0  0  0  0  0
  -46.0978   57.8117   57.7897 C   0  0  0  0  0  0  0  0  0  0  0  0
  -46.1859   57.4843   59.2824 C   0  0  0  0  0  0  0  0  0  0  0  0
  -46.7252   60.4341   65.4773 C   0  0  0  0  0  0  0  0  0  0  0  0
  -46.0569   59.8189   64.2249 C   0  0  0  0  0  0  0  0  0  0  0  0
  -44.7838   62.4138   61.9010 C   0  0  0  0  0  0  0  0  0  0  0  0
  -43.4100   62.4088   62.1771 C   0  0  0  0  0  0  0  0  0  0  0  0
  -45.6459   61.5483   62.5848 C   0  0  0  0  0  0  0  0  0  0  0  0
  -42.9236   61.5304   63.1451 C   0  0  0  0  0  0  0  0  0  0  0  0
  -43.7887   60.6770   63.8278 C   0  0  0  0  0  0  0  0  0  0  0  0
  -45.1674   60.6894   63.5807 C   0  0  0  0  0  0  0  0  0  0  0  0
  -41.6089   61.4623   63.4686 O   0  0  0  0  0  0  0  0  0  0  0  0
  -43.2689   59.8404   64.7722 O   0  0  0  0  0  0  0  0  0  0  0  0
  -40.9905   62.0173   63.0356 H   0  0  0  0  0  0  0  0  0  0  0  0
  -42.3463   59.8340   64.9356 H   0  0  0  0  0  0  0  0  0  0  0  0
 12 13  1  0  0  0
  9 10  2  0  0  0
  9  8  1  0  0  0
  6  7  2  0  0  0
  6  8  1  0  0  0
 10 11  1  0  0  0
  7  5  1  0  0  0
 16 17  2  0  0  0
 16 18  1  0  0  0
 17 19  1  0  0  0
 18 21  2  0  0  0
 13 11  1  0  0  0
  5  4  1  0  0  0
  4  3  1  0  0  0
  3  2  1  0  0  0
  2  1  1  0  0  0
  1 14  1  0  0  0
 14 15  1  0  0  0
 15 21  1  0  0  0
 19 20  2  0  0  0
 19 22  1  0  0  0
 20 21  1  0  0  0
 20 23  1  0  0  0
 22 24  1  0  0  0
 23 25  1  0  0  0
M  END
> <minimizedAffinity>
-7.66340

> <CNNscore>
0.4589064121

> <CNNaffinity>
6.2045307159

> <CNN_VS>
2.8472988605

> <CNNaffinity_variance>
0.2789139152

$$$$
/media/chris/experiments/cd1a-new-docking/inputs/ligands/5j1a_ligand.pdb


 25 25  0  0  0  0  0  0  0  0999 V2000
  -48.7845   59.3251   66.1876 C   0  0  0  0  0  0  0  0  0  0  0  0
  -49.2143   58.4439   65.0054 C   0  0  0  0  0  0  0  0  0  0  0  0
  -50.3439   59.1089   64.2309 C   0  0  0  0  0  0  0  0  0  0  0  0
  -50.4446   58.4808   62.8404 C   0  0  0  0  0  0  0  0  0  0  0  0
  -49.1277   58.6594   62.0852 C   0  0  0  0  0  0  0  0  0  0  0  0
  -48.9746   60.2318   59.9450 C   0  0  0  0  0  0  0  0  0  0  0  0
  -49.1284   60.0595   61.4689 C   0  0  0  0  0  0  0  0  0  0  0  0
  -48.6946   59.0430   59.0130 C   0  0  0  0  0  0  0  0  0  0  0  0
  -47.2681   59.2170   58.4716 C   0  0  0  0  0  0  0  0  0  0  0  0
  -46.7324   58.3745   57.2893 C   0  0  0  0  0  0  0  0  0  0  0  0
  -47.6137   57.3378   56.5653 C   0  0  0  0  0  0  0  0  0  0  0  0
  -47.3343   55.5281   58.3190 C   0  0  0  0  0  0  0  0  0  0  0  0
  -47.0398   55.9489   56.8771 C   0  0  0  0  0  0  0  0  0  0  0  0
  -47.9672   60.5714   65.7590 C   0  0  0  0  0  0  0  0  0  0  0  0
  -46.4852   60.2510   65.4517 C   0  0  0  0  0  0  0  0  0  0  0  0
  -45.9865   61.8870   62.1608 C   0  0  0  0  0  0  0  0  0  0  0  0
  -45.5573   60.8187   61.3622 C   0  0  0  0  0  0  0  0  0  0  0  0
  -46.2929   61.6822   63.5114 C   0  0  0  0  0  0  0  0  0  0  0  0
  -45.4393   59.5546   61.9398 C   0  0  0  0  0  0  0  0  0  0  0  0
  -45.7384   59.3593   63.2871 C   0  0  0  0  0  0  0  0  0  0  0  0
  -46.1435   60.4230   64.1035 C   0  0  0  0  0  0  0  0  0  0  0  0
  -45.0336   58.4697   61.2355 O   0  0  0  0  0  0  0  0  0  0  0  0
  -45.6008   58.1069   63.8107 O   0  0  0  0  0  0  0  0  0  0  0  0
  -44.8216   58.5535   60.3266 H   0  0  0  0  0  0  0  0  0  0  0  0
  -45.3297   57.3970   63.2624 H   0  0  0  0  0  0  0  0  0  0  0  0
 12 13  1  0  0  0
  9 10  2  0  0  0
  9  8  1  0  0  0
  6  7  2  0  0  0
  6  8  1  0  0  0
 10 11  1  0  0  0
  7  5  1  0  0  0
 16 17  2  0  0  0
 16 18  1  0  0  0
 17 19  1  0  0  0
 18 21  2  0  0  0
 13 11  1  0  0  0
  5  4  1  0  0  0
  4  3  1  0  0  0
  3  2  1  0  0  0
  2  1  1  0  0  0
  1 14  1  0  0  0
 14 15  1  0  0  0
 15 21  1  0  0  0
 19 20  2  0  0  0
 19 22  1  0  0  0
 20 21  1  0  0  0
 20 23  1  0  0  0
 22 24  1  0  0  0
 23 25  1  0  0  0
M  END
> <minimizedAffinity>
-7.53051

> <CNNscore>
0.4191471338

> <CNNaffinity>
6.3788862228

> <CNN_VS>
2.6736919880

> <CNNaffinity_variance>
0.1228559762

$$$$
/media/chris/experiments/cd1a-new-docking/inputs/ligands/5j1a_ligand.pdb


 25 25  0  0  0  0  0  0  0  0999 V2000
  -38.2775   59.9777   61.3852 C   0  0  0  0  0  0  0  0  0  0  0  0
  -37.6722   58.7366   60.7126 C   0  0  0  0  0  0  0  0  0  0  0  0
  -38.4204   57.4821   61.1423 C   0  0  0  0  0  0  0  0  0  0  0  0
  -39.7345   57.8802   61.8152 C   0  0  0  0  0  0  0  0  0  0  0  0
  -39.9631   57.0332   63.0669 C   0  0  0  0  0  0  0  0  0  0  0  0
  -38.4171   58.1118   64.9439 C   0  0  0  0  0  0  0  0  0  0  0  0
  -39.8002   57.9448   64.2845 C   0  0  0  0  0  0  0  0  0  0  0  0
  -37.1956   57.2938   64.4974 C   0  0  0  0  0  0  0  0  0  0  0  0
  -35.9938   58.2495   64.4733 C   0  0  0  0  0  0  0  0  0  0  0  0
  -34.8468   58.0972   63.4458 C   0  0  0  0  0  0  0  0  0  0  0  0
  -34.8646   56.9983   62.3652 C   0  0  0  0  0  0  0  0  0  0  0  0
  -32.8191   58.4229   61.9018 C   0  0  0  0  0  0  0  0  0  0  0  0
  -33.7173   57.2943   61.3897 C   0  0  0  0  0  0  0  0  0  0  0  0
  -37.2593   60.7655   62.2498 C   0  0  0  0  0  0  0  0  0  0  0  0
  -37.8609   61.2833   63.5778 C   0  0  0  0  0  0  0  0  0  0  0  0
  -34.8642   63.2142   64.6006 C   0  0  0  0  0  0  0  0  0  0  0  0
  -34.9645   63.1963   65.9981 C   0  0  0  0  0  0  0  0  0  0  0  0
  -35.8289   62.5736   63.8139 C   0  0  0  0  0  0  0  0  0  0  0  0
  -36.0422   62.5332   66.5848 C   0  0  0  0  0  0  0  0  0  0  0  0
  -37.0034   61.9043   65.7953 C   0  0  0  0  0  0  0  0  0  0  0  0
  -36.9299   61.9362   64.3969 C   0  0  0  0  0  0  0  0  0  0  0  0
  -36.2099   62.4677   67.9284 O   0  0  0  0  0  0  0  0  0  0  0  0
  -38.0444   61.2746   66.4130 O   0  0  0  0  0  0  0  0  0  0  0  0
  -35.5886   62.8762   68.4986 H   0  0  0  0  0  0  0  0  0  0  0  0
  -38.0912   61.2546   67.3487 H   0  0  0  0  0  0  0  0  0  0  0  0
 12 13  1  0  0  0
  9 10  2  0  0  0
  9  8  1  0  0  0
  6  7  2  0  0  0
  6  8  1  0  0  0
 10 11  1  0  0  0
  7  5  1  0  0  0
 16 17  2  0  0  0
 16 18  1  0  0  0
 17 19  1  0  0  0
 18 21  2  0  0  0
 13 11  1  0  0  0
  5  4  1  0  0  0
  4  3  1  0  0  0
  3  2  1  0  0  0
  2  1  1  0  0  0
  1 14  1  0  0  0
 14 15  1  0  0  0
 15 21  1  0  0  0
 19 20  2  0  0  0
 19 22  1  0  0  0
 20 21  1  0  0  0
 20 23  1  0  0  0
 22 24  1  0  0  0
 23 25  1  0  0  0
M  END
> <minimizedAffinity>
-7.21323

> <CNNscore>
0.4129776359

> <CNNaffinity>
6.0879321098

> <CNN_VS>
2.5141797066

> <CNNaffinity_variance>
0.1589105427

$$$$
/media/chris/experiments/cd1a-new-docking/inputs/ligands/5j1a_ligand.pdb


 25 25  0  0  0  0  0  0  0  0999 V2000
  -50.5181   58.5159   61.5182 C   0  0  0  0  0  0  0  0  0  0  0  0
  -50.1736   58.7631   62.9944 C   0  0  0  0  0  0  0  0  0  0  0  0
  -50.9577   59.9531   63.5303 C   0  0  0  0  0  0  0  0  0  0  0  0
  -50.8729   59.9710   65.0569 C   0  0  0  0  0  0  0  0  0  0  0  0
  -49.7890   59.0055   65.5356 C   0  0  0  0  0  0  0  0  0  0  0  0
  -47.5073   60.2812   66.0285 C   0  0  0  0  0  0  0  0  0  0  0  0
  -48.8800   59.7655   66.5032 C   0  0  0  0  0  0  0  0  0  0  0  0
  -46.9499   59.9547   64.6345 C   0  0  0  0  0  0  0  0  0  0  0  0
  -46.6906   61.2917   63.9250 C   0  0  0  0  0  0  0  0  0  0  0  0
  -46.7032   61.4163   62.3826 C   0  0  0  0  0  0  0  0  0  0  0  0
  -47.0123   60.2113   61.4727 C   0  0  0  0  0  0  0  0  0  0  0  0
  -45.7670   58.0517   61.0106 C   0  0  0  0  0  0  0  0  0  0  0  0
  -45.6714   59.5779   61.0773 C   0  0  0  0  0  0  0  0  0  0  0  0
  -49.5518   57.5242   60.8200 C   0  0  0  0  0  0  0  0  0  0  0  0
  -49.8253   57.3731   59.3047 C   0  0  0  0  0  0  0  0  0  0  0  0
  -46.8936   58.7458   57.4947 C   0  0  0  0  0  0  0  0  0  0  0  0
  -46.3726   57.6054   56.8691 C   0  0  0  0  0  0  0  0  0  0  0  0
  -48.0388   58.6530   58.2948 C   0  0  0  0  0  0  0  0  0  0  0  0
  -47.0139   56.3820   57.0627 C   0  0  0  0  0  0  0  0  0  0  0  0
  -48.1491   56.2954   57.8669 C   0  0  0  0  0  0  0  0  0  0  0  0
  -48.6658   57.4221   58.5192 C   0  0  0  0  0  0  0  0  0  0  0  0
  -46.5750   55.2338   56.4912 O   0  0  0  0  0  0  0  0  0  0  0  0
  -48.7385   55.0761   58.0338 O   0  0  0  0  0  0  0  0  0  0  0  0
  -45.8154   55.2441   55.9427 H   0  0  0  0  0  0  0  0  0  0  0  0
  -48.3910   54.3239   57.5962 H   0  0  0  0  0  0  0  0  0  0  0  0
 12 13  1  0  0  0
  9 10  2  0  0  0
  9  8  1  0  0  0
  6  7  2  0  0  0
  6  8  1  0  0  0
 10 11  1  0  0  0
  7  5  1  0  0  0
 16 17  2  0  0  0
 16 18  1  0  0  0
 17 19  1  0  0  0
 18 21  2  0  0  0
 13 11  1  0  0  0
  5  4  1  0  0  0
  4  3  1  0  0  0
  3  2  1  0  0  0
  2  1  1  0  0  0
  1 14  1  0  0  0
 14 15  1  0  0  0
 15 21  1  0  0  0
 19 20  2  0  0  0
 19 22  1  0  0  0
 20 21  1  0  0  0
 20 23  1  0  0  0
 22 24  1  0  0  0
 23 25  1  0  0  0
M  END
> <minimizedAffinity>
-8.07146

> <CNNscore>
0.3816325068

> <CNNaffinity>
6.6164884567

> <CNN_VS>
2.5250670910

> <CNNaffinity_variance>
0.0629256964

$$$$
/media/chris/experiments/cd1a-new-docking/inputs/ligands/5j1a_ligand.pdb


 25 25  0  0  0  0  0  0  0  0999 V2000
  -47.8952   58.4069   64.9537 C   0  0  0  0  0  0  0  0  0  0  0  0
  -48.7864   57.9526   63.7882 C   0  0  0  0  0  0  0  0  0  0  0  0
  -50.0205   58.8385   63.6871 C   0  0  0  0  0  0  0  0  0  0  0  0
  -50.4625   58.9285   62.2261 C   0  0  0  0  0  0  0  0  0  0  0  0
  -50.2754   57.5780   61.5350 C   0  0  0  0  0  0  0  0  0  0  0  0
  -49.4018   57.1303   59.0626 C   0  0  0  0  0  0  0  0  0  0  0  0
  -50.3979   57.8035   60.0270 C   0  0  0  0  0  0  0  0  0  0  0  0
  -48.1951   56.3240   59.5670 C   0  0  0  0  0  0  0  0  0  0  0  0
  -46.9697   56.7951   58.7703 C   0  0  0  0  0  0  0  0  0  0  0  0
  -45.8994   57.7260   59.3886 C   0  0  0  0  0  0  0  0  0  0  0  0
  -45.9854   58.2039   60.8514 C   0  0  0  0  0  0  0  0  0  0  0  0
  -46.9456   60.2060   59.6274 C   0  0  0  0  0  0  0  0  0  0  0  0
  -46.9977   59.3565   60.8997 C   0  0  0  0  0  0  0  0  0  0  0  0
  -47.5603   59.9206   64.9166 C   0  0  0  0  0  0  0  0  0  0  0  0
  -46.0440   60.2110   65.0167 C   0  0  0  0  0  0  0  0  0  0  0  0
  -45.9573   62.6821   62.2524 C   0  0  0  0  0  0  0  0  0  0  0  0
  -44.6514   62.5350   61.7660 C   0  0  0  0  0  0  0  0  0  0  0  0
  -46.4040   61.9032   63.3266 C   0  0  0  0  0  0  0  0  0  0  0  0
  -43.8101   61.6036   62.3742 C   0  0  0  0  0  0  0  0  0  0  0  0
  -44.2588   60.8370   63.4484 C   0  0  0  0  0  0  0  0  0  0  0  0
  -45.5529   60.9917   63.9617 C   0  0  0  0  0  0  0  0  0  0  0  0
  -42.5349   61.3993   61.9620 O   0  0  0  0  0  0  0  0  0  0  0  0
  -43.3979   59.9440   64.0169 O   0  0  0  0  0  0  0  0  0  0  0  0
  -42.1901   61.8920   61.2435 H   0  0  0  0  0  0  0  0  0  0  0  0
  -42.5328   59.8423   63.6716 H   0  0  0  0  0  0  0  0  0  0  0  0
 12 13  1  0  0  0
  9 10  2  0  0  0
  9  8  1  0  0  0
  6  7  2  0  0  0
  6  8  1  0  0  0
 10 11  1  0  0  0
  7  5  1  0  0  0
 16 17  2  0  0  0
 16 18  1  0  0  0
 17 19  1  0  0  0
 18 21  2  0  0  0
 13 11  1  0  0  0
  5  4  1  0  0  0
  4  3  1  0  0  0
  3  2  1  0  0  0
  2  1  1  0  0  0
  1 14  1  0  0  0
 14 15  1  0  0  0
 15 21  1  0  0  0
 19 20  2  0  0  0
 19 22  1  0  0  0
 20 21  1  0  0  0
 20 23  1  0  0  0
 22 24  1  0  0  0
 23 25  1  0  0  0
M  END
> <minimizedAffinity>
-7.18582

> <CNNscore>
0.3510567546

> <CNNaffinity>
6.1420125961

> <CNN_VS>
2.1561949253

> <CNNaffinity_variance>
0.1761339009

$$$$
