/media/chris/experiments/cd1a-new-docking/inputs/ligands/5j1a_ligand.pdb


 25 25  0  0  0  0  0  0  0  0999 V2000
  -47.1391   58.0582   64.7521 C   0  0  0  0  0  0  0  0  0  0  0  0
  -48.0884   59.0727   65.4070 C   0  0  0  0  0  0  0  0  0  0  0  0
  -49.2140   59.4408   64.4500 C   0  0  0  0  0  0  0  0  0  0  0  0
  -48.6529   59.5749   63.0340 C   0  0  0  0  0  0  0  0  0  0  0  0
  -49.7870   59.5189   62.0105 C   0  0  0  0  0  0  0  0  0  0  0  0
  -50.3595   57.4243   60.4740 C   0  0  0  0  0  0  0  0  0  0  0  0
  -50.2198   58.0583   61.8717 C   0  0  0  0  0  0  0  0  0  0  0  0
  -50.1966   58.2449   59.1853 C   0  0  0  0  0  0  0  0  0  0  0  0
  -49.1294   57.5433   58.3326 C   0  0  0  0  0  0  0  0  0  0  0  0
  -47.7418   58.1771   58.0728 C   0  0  0  0  0  0  0  0  0  0  0  0
  -47.3403   59.5331   58.6857 C   0  0  0  0  0  0  0  0  0  0  0  0
  -45.8382   57.9424   59.9671 C   0  0  0  0  0  0  0  0  0  0  0  0
  -46.6406   59.2447   60.0210 C   0  0  0  0  0  0  0  0  0  0  0  0
  -45.6423   58.4382   64.8935 C   0  0  0  0  0  0  0  0  0  0  0  0
  -45.4199   59.9454   65.1618 C   0  0  0  0  0  0  0  0  0  0  0  0
  -44.5808   61.7819   62.0507 C   0  0  0  0  0  0  0  0  0  0  0  0
  -43.1805   61.8097   62.0930 C   0  0  0  0  0  0  0  0  0  0  0  0
  -45.3072   61.1580   63.0720 C   0  0  0  0  0  0  0  0  0  0  0  0
  -42.5300   61.2092   63.1706 C   0  0  0  0  0  0  0  0  0  0  0  0
  -43.2596   60.5967   64.1882 C   0  0  0  0  0  0  0  0  0  0  0  0
  -44.6602   60.5839   64.1721 C   0  0  0  0  0  0  0  0  0  0  0  0
  -41.1793   61.1907   63.2845 O   0  0  0  0  0  0  0  0  0  0  0  0
  -42.5806   60.0289   65.2266 O   0  0  0  0  0  0  0  0  0  0  0  0
  -40.6480   61.5902   62.6241 H   0  0  0  0  0  0  0  0  0  0  0  0
  -41.6436   60.0388   65.2349 H   0  0  0  0  0  0  0  0  0  0  0  0
 12 13  1  0  0  0
  9 10  2  0  0  0
  9  8  1  0  0  0
  6  7  2  0  0  0
  6  8  1  0  0  0
 10 11  1  0  0  0
  7  5  1  0  0  0
 16 17  2  0  0  0
 16 18  1  0  0  0
 17 19  1  0  0  0
 18 21  2  0  0  0
 13 11  1  0  0  0
  5  4  1  0  0  0
  4  3  1  0  0  0
  3  2  1  0  0  0
  2  1  1  0  0  0
  1 14  1  0  0  0
 14 15  1  0  0  0
 15 21  1  0  0  0
 19 20  2  0  0  0
 19 22  1  0  0  0
 20 21  1  0  0  0
 20 23  1  0  0  0
 22 24  1  0  0  0
 23 25  1  0  0  0
M  END
> <minimizedAffinity>
-6.94922

> <CNNscore>
0.5721029043

> <CNNaffinity>
6.4079103470

> <CNN_VS>
3.6659841537

> <CNNaffinity_variance>
0.3549316227

$$$$
/media/chris/experiments/cd1a-new-docking/inputs/ligands/5j1a_ligand.pdb


 25 25  0  0  0  0  0  0  0  0999 V2000
  -46.7723   56.5444   58.0776 C   0  0  0  0  0  0  0  0  0  0  0  0
  -47.6937   56.0246   59.1911 C   0  0  0  0  0  0  0  0  0  0  0  0
  -49.0368   56.7402   59.1459 C   0  0  0  0  0  0  0  0  0  0  0  0
  -49.8197   56.4316   60.4226 C   0  0  0  0  0  0  0  0  0  0  0  0
  -49.5084   57.4740   61.4963 C   0  0  0  0  0  0  0  0  0  0  0  0
  -50.6997   59.5778   62.6060 C   0  0  0  0  0  0  0  0  0  0  0  0
  -50.6868   58.4475   61.5584 C   0  0  0  0  0  0  0  0  0  0  0  0
  -49.6174   59.6989   63.6898 C   0  0  0  0  0  0  0  0  0  0  0  0
  -50.2291   59.1852   65.0012 C   0  0  0  0  0  0  0  0  0  0  0  0
  -49.5939   58.0226   65.8011 C   0  0  0  0  0  0  0  0  0  0  0  0
  -48.2906   57.3387   65.3440 C   0  0  0  0  0  0  0  0  0  0  0  0
  -46.2768   58.8747   65.2261 C   0  0  0  0  0  0  0  0  0  0  0  0
  -47.1359   57.9816   66.1245 C   0  0  0  0  0  0  0  0  0  0  0  0
  -45.9835   57.8180   58.4782 C   0  0  0  0  0  0  0  0  0  0  0  0
  -45.7651   57.9435   60.0045 C   0  0  0  0  0  0  0  0  0  0  0  0
  -47.6280   61.1219   60.4326 C   0  0  0  0  0  0  0  0  0  0  0  0
  -46.9153   61.7448   61.4658 C   0  0  0  0  0  0  0  0  0  0  0  0
  -47.2326   59.8656   59.9579 C   0  0  0  0  0  0  0  0  0  0  0  0
  -45.8121   61.0880   62.0104 C   0  0  0  0  0  0  0  0  0  0  0  0
  -45.4286   59.8337   61.5384 C   0  0  0  0  0  0  0  0  0  0  0  0
  -46.1470   59.1878   60.5241 C   0  0  0  0  0  0  0  0  0  0  0  0
  -45.0688   61.6234   63.0098 O   0  0  0  0  0  0  0  0  0  0  0  0
  -44.3474   59.2256   62.1068 O   0  0  0  0  0  0  0  0  0  0  0  0
  -45.2894   62.4647   63.3585 H   0  0  0  0  0  0  0  0  0  0  0  0
  -43.8685   59.6599   62.7851 H   0  0  0  0  0  0  0  0  0  0  0  0
 12 13  1  0  0  0
  9 10  2  0  0  0
  9  8  1  0  0  0
  6  7  2  0  0  0
  6  8  1  0  0  0
 10 11  1  0  0  0
  7  5  1  0  0  0
 16 17  2  0  0  0
 16 18  1  0  0  0
 17 19  1  0  0  0
 18 21  2  0  0  0
 13 11  1  0  0  0
  5  4  1  0  0  0
  4  3  1  0  0  0
  3  2  1  0  0  0
  2  1  1  0  0  0
  1 14  1  0  0  0
 14 15  1  0  0  0
 15 21  1  0  0  0
 19 20  2  0  0  0
 19 22  1  0  0  0
 20 21  1  0  0  0
 20 23  1  0  0  0
 22 24  1  0  0  0
 23 25  1  0  0  0
M  END
> <minimizedAffinity>
-7.40956

> <CNNscore>
0.5714921951

> <CNNaffinity>
6.6270685196

> <CNN_VS>
3.7873179913

> <CNNaffinity_variance>
0.1404873431

$$$$
/media/chris/experiments/cd1a-new-docking/inputs/ligands/5j1a_ligand.pdb


 25 25  0  0  0  0  0  0  0  0999 V2000
  -50.8330   59.9903   64.8841 C   0  0  0  0  0  0  0  0  0  0  0  0
  -50.0450   59.9676   63.5659 C   0  0  0  0  0  0  0  0  0  0  0  0
  -50.9025   59.3970   62.4446 C   0  0  0  0  0  0  0  0  0  0  0  0
  -50.4613   57.9635   62.1473 C   0  0  0  0  0  0  0  0  0  0  0  0
  -50.7683   57.6088   60.6925 C   0  0  0  0  0  0  0  0  0  0  0  0
  -48.8617   56.7264   59.0608 C   0  0  0  0  0  0  0  0  0  0  0  0
  -49.7977   56.5064   60.2652 C   0  0  0  0  0  0  0  0  0  0  0  0
  -48.9467   57.9820   58.1794 C   0  0  0  0  0  0  0  0  0  0  0  0
  -47.5273   58.5582   58.0724 C   0  0  0  0  0  0  0  0  0  0  0  0
  -47.0984   59.8281   58.8457 C   0  0  0  0  0  0  0  0  0  0  0  0
  -48.0627   60.5655   59.7954 C   0  0  0  0  0  0  0  0  0  0  0  0
  -46.9288   59.0436   61.4765 C   0  0  0  0  0  0  0  0  0  0  0  0
  -47.4934   60.4421   61.2154 C   0  0  0  0  0  0  0  0  0  0  0  0
  -50.0773   59.3233   66.0625 C   0  0  0  0  0  0  0  0  0  0  0  0
  -48.6165   59.8126   66.2033 C   0  0  0  0  0  0  0  0  0  0  0  0
  -47.0661   56.4448   66.1055 C   0  0  0  0  0  0  0  0  0  0  0  0
  -45.7643   56.7316   65.6734 C   0  0  0  0  0  0  0  0  0  0  0  0
  -47.9970   57.4758   66.2794 C   0  0  0  0  0  0  0  0  0  0  0  0
  -45.4196   58.0586   65.4181 C   0  0  0  0  0  0  0  0  0  0  0  0
  -46.3538   59.0795   65.5856 C   0  0  0  0  0  0  0  0  0  0  0  0
  -47.6658   58.8048   65.9920 C   0  0  0  0  0  0  0  0  0  0  0  0
  -44.1815   58.4195   64.9999 O   0  0  0  0  0  0  0  0  0  0  0  0
  -45.9737   60.3620   65.3162 O   0  0  0  0  0  0  0  0  0  0  0  0
  -43.5210   57.7670   64.8736 H   0  0  0  0  0  0  0  0  0  0  0  0
  -45.0953   60.5431   65.0446 H   0  0  0  0  0  0  0  0  0  0  0  0
 12 13  1  0  0  0
  9 10  2  0  0  0
  9  8  1  0  0  0
  6  7  2  0  0  0
  6  8  1  0  0  0
 10 11  1  0  0  0
  7  5  1  0  0  0
 16 17  2  0  0  0
 16 18  1  0  0  0
 17 19  1  0  0  0
 18 21  2  0  0  0
 13 11  1  0  0  0
  5  4  1  0  0  0
  4  3  1  0  0  0
  3  2  1  0  0  0
  2  1  1  0  0  0
  1 14  1  0  0  0
 14 15  1  0  0  0
 15 21  1  0  0  0
 19 20  2  0  0  0
 19 22  1  0  0  0
 20 21  1  0  0  0
 20 23  1  0  0  0
 22 24  1  0  0  0
 23 25  1  0  0  0
M  END
> <minimizedAffinity>
-7.65703

> <CNNscore>
0.5035046935

> <CNNaffinity>
6.5640349388

> <CNN_VS>
3.3050224781

> <CNNaffinity_variance>
0.2161874771

$$$$
/media/chris/experiments/cd1a-new-docking/inputs/ligands/5j1a_ligand.pdb


 25 25  0  0  0  0  0  0  0  0999 V2000
  -46.9694   61.0955   60.4775 C   0  0  0  0  0  0  0  0  0  0  0  0
  -46.6412   59.6566   60.0520 C   0  0  0  0  0  0  0  0  0  0  0  0
  -47.0415   59.4279   58.6010 C   0  0  0  0  0  0  0  0  0  0  0  0
  -48.1142   58.3401   58.5358 C   0  0  0  0  0  0  0  0  0  0  0  0
  -49.4638   58.9038   58.9799 C   0  0  0  0  0  0  0  0  0  0  0  0
  -50.8367   57.5840   60.8372 C   0  0  0  0  0  0  0  0  0  0  0  0
  -50.3535   57.7257   59.3806 C   0  0  0  0  0  0  0  0  0  0  0  0
  -50.3564   58.5259   61.9520 C   0  0  0  0  0  0  0  0  0  0  0  0
  -49.0130   57.9813   62.4587 C   0  0  0  0  0  0  0  0  0  0  0  0
  -48.6249   58.0226   63.9561 C   0  0  0  0  0  0  0  0  0  0  0  0
  -49.5813   58.5806   65.0283 C   0  0  0  0  0  0  0  0  0  0  0  0
  -48.3680   60.3273   66.4085 C   0  0  0  0  0  0  0  0  0  0  0  0
  -48.7502   58.8500   66.2902 C   0  0  0  0  0  0  0  0  0  0  0  0
  -47.0001   61.2887   62.0159 C   0  0  0  0  0  0  0  0  0  0  0  0
  -45.8370   62.1620   62.5428 C   0  0  0  0  0  0  0  0  0  0  0  0
  -44.4562   59.8978   65.1356 C   0  0  0  0  0  0  0  0  0  0  0  0
  -43.0750   60.0512   64.9561 C   0  0  0  0  0  0  0  0  0  0  0  0
  -45.3570   60.6060   64.3313 C   0  0  0  0  0  0  0  0  0  0  0  0
  -42.6199   60.9167   63.9617 C   0  0  0  0  0  0  0  0  0  0  0  0
  -43.5224   61.6127   63.1591 C   0  0  0  0  0  0  0  0  0  0  0  0
  -44.9054   61.4496   63.3101 C   0  0  0  0  0  0  0  0  0  0  0  0
  -41.3008   61.1224   63.7261 O   0  0  0  0  0  0  0  0  0  0  0  0
  -43.0311   62.4426   62.1938 O   0  0  0  0  0  0  0  0  0  0  0  0
  -40.6578   60.6759   64.2411 H   0  0  0  0  0  0  0  0  0  0  0  0
  -42.1055   62.5501   62.0949 H   0  0  0  0  0  0  0  0  0  0  0  0
 12 13  1  0  0  0
  9 10  2  0  0  0
  9  8  1  0  0  0
  6  7  2  0  0  0
  6  8  1  0  0  0
 10 11  1  0  0  0
  7  5  1  0  0  0
 16 17  2  0  0  0
 16 18  1  0  0  0
 17 19  1  0  0  0
 18 21  2  0  0  0
 13 11  1  0  0  0
  5  4  1  0  0  0
  4  3  1  0  0  0
  3  2  1  0  0  0
  2  1  1  0  0  0
  1 14  1  0  0  0
 14 15  1  0  0  0
 15 21  1  0  0  0
 19 20  2  0  0  0
 19 22  1  0  0  0
 20 21  1  0  0  0
 20 23  1  0  0  0
 22 24  1  0  0  0
 23 25  1  0  0  0
M  END
> <minimizedAffinity>
-7.37061

> <CNNscore>
0.4748456776

> <CNNaffinity>
6.2692079544

> <CNN_VS>
2.9769062996

> <CNNaffinity_variance>
0.2392049134

$$$$
/media/chris/experiments/cd1a-new-docking/inputs/ligands/5j1a_ligand.pdb


 25 25  0  0  0  0  0  0  0  0999 V2000
  -45.7192   57.4081   59.3071 C   0  0  0  0  0  0  0  0  0  0  0  0
  -46.4405   58.0030   58.0885 C   0  0  0  0  0  0  0  0  0  0  0  0
  -47.6898   58.7552   58.5262 C   0  0  0  0  0  0  0  0  0  0  0  0
  -48.9308   57.9850   58.0739 C   0  0  0  0  0  0  0  0  0  0  0  0
  -50.0791   58.2122   59.0569 C   0  0  0  0  0  0  0  0  0  0  0  0
  -50.1722   57.7187   61.6692 C   0  0  0  0  0  0  0  0  0  0  0  0
  -49.8886   57.2482   60.2293 C   0  0  0  0  0  0  0  0  0  0  0  0
  -50.5292   59.1769   61.9963 C   0  0  0  0  0  0  0  0  0  0  0  0
  -49.3088   59.7978   62.6915 C   0  0  0  0  0  0  0  0  0  0  0  0
  -49.2104   59.9048   64.2321 C   0  0  0  0  0  0  0  0  0  0  0  0
  -50.3172   59.3611   65.1567 C   0  0  0  0  0  0  0  0  0  0  0  0
  -48.3687   57.7848   65.5396 C   0  0  0  0  0  0  0  0  0  0  0  0
  -49.8873   57.9605   65.6140 C   0  0  0  0  0  0  0  0  0  0  0  0
  -46.2324   57.9694   60.6585 C   0  0  0  0  0  0  0  0  0  0  0  0
  -45.1012   58.5253   61.5554 C   0  0  0  0  0  0  0  0  0  0  0  0
  -46.3053   62.0273   61.3514 C   0  0  0  0  0  0  0  0  0  0  0  0
  -45.2087   62.7457   61.8463 C   0  0  0  0  0  0  0  0  0  0  0  0
  -46.2527   60.6315   61.2581 C   0  0  0  0  0  0  0  0  0  0  0  0
  -44.0718   62.0435   62.2454 C   0  0  0  0  0  0  0  0  0  0  0  0
  -44.0291   60.6531   62.1573 C   0  0  0  0  0  0  0  0  0  0  0  0
  -45.1271   59.9202   61.6889 C   0  0  0  0  0  0  0  0  0  0  0  0
  -42.9690   62.6638   62.7323 O   0  0  0  0  0  0  0  0  0  0  0  0
  -42.8984   60.0081   62.5667 O   0  0  0  0  0  0  0  0  0  0  0  0
  -42.9524   63.5975   62.8095 H   0  0  0  0  0  0  0  0  0  0  0  0
  -42.1653   60.5007   62.8796 H   0  0  0  0  0  0  0  0  0  0  0  0
 12 13  1  0  0  0
  9 10  2  0  0  0
  9  8  1  0  0  0
  6  7  2  0  0  0
  6  8  1  0  0  0
 10 11  1  0  0  0
  7  5  1  0  0  0
 16 17  2  0  0  0
 16 18  1  0  0  0
 17 19  1  0  0  0
 18 21  2  0  0  0
 13 11  1  0  0  0
  5  4  1  0  0  0
  4  3  1  0  0  0
  3  2  1  0  0  0
  2  1  1  0  0  0
  1 14  1  0  0  0
 14 15  1  0  0  0
 15 21  1  0  0  0
 19 20  2  0  0  0
 19 22  1  0  0  0
 20 21  1  0  0  0
 20 23  1  0  0  0
 22 24  1  0  0  0
 23 25  1  0  0  0
M  END
> <minimizedAffinity>
-7.71213

> <CNNscore>
0.3853970468

> <CNNaffinity>
6.2896957397

> <CNN_VS>
2.4240300655

> <CNNaffinity_variance>
0.1637040228

$$$$
/media/chris/experiments/cd1a-new-docking/inputs/ligands/5j1a_ligand.pdb


 25 25  0  0  0  0  0  0  0  0999 V2000
  -45.8433   60.2385   61.1222 C   0  0  0  0  0  0  0  0  0  0  0  0
  -46.0913   58.7385   61.3402 C   0  0  0  0  0  0  0  0  0  0  0  0
  -45.4328   57.9253   60.2342 C   0  0  0  0  0  0  0  0  0  0  0  0
  -46.2586   58.0484   58.9532 C   0  0  0  0  0  0  0  0  0  0  0  0
  -47.4720   57.1209   59.0176 C   0  0  0  0  0  0  0  0  0  0  0  0
  -49.8535   58.2473   58.6493 C   0  0  0  0  0  0  0  0  0  0  0  0
  -48.5395   57.6816   58.0762 C   0  0  0  0  0  0  0  0  0  0  0  0
  -50.1960   58.1613   60.1446 C   0  0  0  0  0  0  0  0  0  0  0  0
  -49.6278   59.4214   60.8134 C   0  0  0  0  0  0  0  0  0  0  0  0
  -49.8071   59.6977   62.3255 C   0  0  0  0  0  0  0  0  0  0  0  0
  -50.5357   58.7048   63.2521 C   0  0  0  0  0  0  0  0  0  0  0  0
  -50.5031   59.4535   65.6742 C   0  0  0  0  0  0  0  0  0  0  0  0
  -49.7703   58.6707   64.5820 C   0  0  0  0  0  0  0  0  0  0  0  0
  -46.6115   61.1396   62.1235 C   0  0  0  0  0  0  0  0  0  0  0  0
  -45.7212   61.6687   63.2727 C   0  0  0  0  0  0  0  0  0  0  0  0
  -46.7405   59.7531   66.2805 C   0  0  0  0  0  0  0  0  0  0  0  0
  -45.5433   59.1262   66.6509 C   0  0  0  0  0  0  0  0  0  0  0  0
  -46.7821   60.5942   65.1622 C   0  0  0  0  0  0  0  0  0  0  0  0
  -44.4015   59.3540   65.8831 C   0  0  0  0  0  0  0  0  0  0  0  0
  -44.4518   60.1864   64.7662 C   0  0  0  0  0  0  0  0  0  0  0  0
  -45.6474   60.7990   64.3692 C   0  0  0  0  0  0  0  0  0  0  0  0
  -43.2050   58.7879   66.1757 O   0  0  0  0  0  0  0  0  0  0  0  0
  -43.3115   60.3738   64.0406 O   0  0  0  0  0  0  0  0  0  0  0  0
  -43.1238   58.2211   66.9175 H   0  0  0  0  0  0  0  0  0  0  0  0
  -42.5130   59.9629   64.3083 H   0  0  0  0  0  0  0  0  0  0  0  0
 12 13  1  0  0  0
  9 10  2  0  0  0
  9  8  1  0  0  0
  6  7  2  0  0  0
  6  8  1  0  0  0
 10 11  1  0  0  0
  7  5  1  0  0  0
 16 17  2  0  0  0
 16 18  1  0  0  0
 17 19  1  0  0  0
 18 21  2  0  0  0
 13 11  1  0  0  0
  5  4  1  0  0  0
  4  3  1  0  0  0
  3  2  1  0  0  0
  2  1  1  0  0  0
  1 14  1  0  0  0
 14 15  1  0  0  0
 15 21  1  0  0  0
 19 20  2  0  0  0
 19 22  1  0  0  0
 20 21  1  0  0  0
 20 23  1  0  0  0
 22 24  1  0  0  0
 23 25  1  0  0  0
M  END
> <minimizedAffinity>
-7.21769

> <CNNscore>
0.3837112188

> <CNNaffinity>
6.2768392563

> <CNN_VS>
2.4084937572

> <CNNaffinity_variance>
0.1980204284

$$$$
/media/chris/experiments/cd1a-new-docking/inputs/ligands/5j1a_ligand.pdb


 25 25  0  0  0  0  0  0  0  0999 V2000
  -45.6248   58.8593   61.1239 C   0  0  0  0  0  0  0  0  0  0  0  0
  -46.0124   57.8746   60.0107 C   0  0  0  0  0  0  0  0  0  0  0  0
  -47.1486   58.4429   59.1714 C   0  0  0  0  0  0  0  0  0  0  0  0
  -48.0671   57.3054   58.7238 C   0  0  0  0  0  0  0  0  0  0  0  0
  -48.5316   56.4959   59.9344 C   0  0  0  0  0  0  0  0  0  0  0  0
  -50.2355   57.7533   61.5443 C   0  0  0  0  0  0  0  0  0  0  0  0
  -49.9588   56.9329   60.2693 C   0  0  0  0  0  0  0  0  0  0  0  0
  -49.1374   58.0545   62.5757 C   0  0  0  0  0  0  0  0  0  0  0  0
  -49.8391   58.4297   63.8891 C   0  0  0  0  0  0  0  0  0  0  0  0
  -49.2582   58.0381   65.2689 C   0  0  0  0  0  0  0  0  0  0  0  0
  -47.9230   57.2799   65.4028 C   0  0  0  0  0  0  0  0  0  0  0  0
  -46.1915   57.1329   67.2491 C   0  0  0  0  0  0  0  0  0  0  0  0
  -47.0448   58.0657   66.3862 C   0  0  0  0  0  0  0  0  0  0  0  0
  -45.5558   58.2029   62.5273 C   0  0  0  0  0  0  0  0  0  0  0  0
  -44.2429   58.5178   63.2824 C   0  0  0  0  0  0  0  0  0  0  0  0
  -41.3557   56.9094   61.5993 C   0  0  0  0  0  0  0  0  0  0  0  0
  -41.1689   55.7555   62.3721 C   0  0  0  0  0  0  0  0  0  0  0  0
  -42.3795   57.8118   61.9114 C   0  0  0  0  0  0  0  0  0  0  0  0
  -42.0180   55.5289   63.4550 C   0  0  0  0  0  0  0  0  0  0  0  0
  -43.0304   56.4355   63.7650 C   0  0  0  0  0  0  0  0  0  0  0  0
  -43.2122   57.6059   63.0171 C   0  0  0  0  0  0  0  0  0  0  0  0
  -41.9053   54.4364   64.2498 O   0  0  0  0  0  0  0  0  0  0  0  0
  -43.8319   56.1762   64.8384 O   0  0  0  0  0  0  0  0  0  0  0  0
  -41.2392   53.7998   64.0793 H   0  0  0  0  0  0  0  0  0  0  0  0
  -43.7082   55.3925   65.3370 H   0  0  0  0  0  0  0  0  0  0  0  0
 12 13  1  0  0  0
  9 10  2  0  0  0
  9  8  1  0  0  0
  6  7  2  0  0  0
  6  8  1  0  0  0
 10 11  1  0  0  0
  7  5  1  0  0  0
 16 17  2  0  0  0
 16 18  1  0  0  0
 17 19  1  0  0  0
 18 21  2  0  0  0
 13 11  1  0  0  0
  5  4  1  0  0  0
  4  3  1  0  0  0
  3  2  1  0  0  0
  2  1  1  0  0  0
  1 14  1  0  0  0
 14 15  1  0  0  0
 15 21  1  0  0  0
 19 20  2  0  0  0
 19 22  1  0  0  0
 20 21  1  0  0  0
 20 23  1  0  0  0
 22 24  1  0  0  0
 23 25  1  0  0  0
M  END
> <minimizedAffinity>
-7.27141

> <CNNscore>
0.3732075989

> <CNNaffinity>
6.5538239479

> <CNN_VS>
2.4459369183

> <CNNaffinity_variance>
0.6141304374

$$$$
/media/chris/experiments/cd1a-new-docking/inputs/ligands/5j1a_ligand.pdb


 25 25  0  0  0  0  0  0  0  0999 V2000
  -45.7593   60.6209   64.4596 C   0  0  0  0  0  0  0  0  0  0  0  0
  -44.9307   59.3559   64.1910 C   0  0  0  0  0  0  0  0  0  0  0  0
  -43.8917   59.1595   65.2865 C   0  0  0  0  0  0  0  0  0  0  0  0
  -43.3011   57.7532   65.1798 C   0  0  0  0  0  0  0  0  0  0  0  0
  -44.4039   56.7057   65.3316 C   0  0  0  0  0  0  0  0  0  0  0  0
  -46.4918   56.9393   66.9633 C   0  0  0  0  0  0  0  0  0  0  0  0
  -44.9701   56.8248   66.7477 C   0  0  0  0  0  0  0  0  0  0  0  0
  -47.4757   57.0624   65.7896 C   0  0  0  0  0  0  0  0  0  0  0  0
  -48.3556   58.2910   66.0622 C   0  0  0  0  0  0  0  0  0  0  0  0
  -49.2325   58.9313   64.9595 C   0  0  0  0  0  0  0  0  0  0  0  0
  -49.2990   58.3490   63.5340 C   0  0  0  0  0  0  0  0  0  0  0  0
  -51.1714   60.0494   63.7094 C   0  0  0  0  0  0  0  0  0  0  0  0
  -50.5121   58.9792   62.8361 C   0  0  0  0  0  0  0  0  0  0  0  0
  -46.1731   61.3697   63.1661 C   0  0  0  0  0  0  0  0  0  0  0  0
  -45.7187   60.6498   61.8745 C   0  0  0  0  0  0  0  0  0  0  0  0
  -48.9189   60.6514   59.9999 C   0  0  0  0  0  0  0  0  0  0  0  0
  -49.0051   59.3231   59.5621 C   0  0  0  0  0  0  0  0  0  0  0  0
  -47.8268   61.0739   60.7672 C   0  0  0  0  0  0  0  0  0  0  0  0
  -47.9831   58.4372   59.9021 C   0  0  0  0  0  0  0  0  0  0  0  0
  -46.8946   58.8665   60.6596 C   0  0  0  0  0  0  0  0  0  0  0  0
  -46.7825   60.1972   61.0822 C   0  0  0  0  0  0  0  0  0  0  0  0
  -47.9928   57.1365   59.5201 O   0  0  0  0  0  0  0  0  0  0  0  0
  -45.9147   57.9662   60.9616 O   0  0  0  0  0  0  0  0  0  0  0  0
  -48.7045   56.8035   59.0097 H   0  0  0  0  0  0  0  0  0  0  0  0
  -45.9921   57.0766   60.6778 H   0  0  0  0  0  0  0  0  0  0  0  0
 12 13  1  0  0  0
  9 10  2  0  0  0
  9  8  1  0  0  0
  6  7  2  0  0  0
  6  8  1  0  0  0
 10 11  1  0  0  0
  7  5  1  0  0  0
 16 17  2  0  0  0
 16 18  1  0  0  0
 17 19  1  0  0  0
 18 21  2  0  0  0
 13 11  1  0  0  0
  5  4  1  0  0  0
  4  3  1  0  0  0
  3  2  1  0  0  0
  2  1  1  0  0  0
  1 14  1  0  0  0
 14 15  1  0  0  0
 15 21  1  0  0  0
 19 20  2  0  0  0
 19 22  1  0  0  0
 20 21  1  0  0  0
 20 23  1  0  0  0
 22 24  1  0  0  0
 23 25  1  0  0  0
M  END
> <minimizedAffinity>
-6.67966

> <CNNscore>
0.3134184182

> <CNNaffinity>
6.4275703430

> <CNN_VS>
2.0145189762

> <CNNaffinity_variance>
0.2295227796

$$$$
/media/chris/experiments/cd1a-new-docking/inputs/ligands/5j1a_ligand.pdb


 25 25  0  0  0  0  0  0  0  0999 V2000
  -47.5667   59.7728   64.4164 C   0  0  0  0  0  0  0  0  0  0  0  0
  -48.4406   58.6411   64.9774 C   0  0  0  0  0  0  0  0  0  0  0  0
  -49.3961   58.1288   63.9084 C   0  0  0  0  0  0  0  0  0  0  0  0
  -50.3375   59.2572   63.4860 C   0  0  0  0  0  0  0  0  0  0  0  0
  -50.4973   59.2686   61.9658 C   0  0  0  0  0  0  0  0  0  0  0  0
  -50.1715   57.4718   60.0315 C   0  0  0  0  0  0  0  0  0  0  0  0
  -50.5361   57.8157   61.4889 C   0  0  0  0  0  0  0  0  0  0  0  0
  -49.8817   58.5582   58.9843 C   0  0  0  0  0  0  0  0  0  0  0  0
  -48.6335   58.1169   58.2063 C   0  0  0  0  0  0  0  0  0  0  0  0
  -47.2055   58.5002   58.6634 C   0  0  0  0  0  0  0  0  0  0  0  0
  -46.9548   59.3169   59.9462 C   0  0  0  0  0  0  0  0  0  0  0  0
  -45.3058   58.4757   61.6786 C   0  0  0  0  0  0  0  0  0  0  0  0
  -46.7082   58.3188   61.0857 C   0  0  0  0  0  0  0  0  0  0  0  0
  -46.4642   60.2425   65.4006 C   0  0  0  0  0  0  0  0  0  0  0  0
  -46.0031   59.1312   66.3730 C   0  0  0  0  0  0  0  0  0  0  0  0
  -44.1129   56.2920   64.9164 C   0  0  0  0  0  0  0  0  0  0  0  0
  -42.7919   56.7554   64.9761 C   0  0  0  0  0  0  0  0  0  0  0  0
  -45.1640   57.0887   65.3859 C   0  0  0  0  0  0  0  0  0  0  0  0
  -42.5487   58.0219   65.5068 C   0  0  0  0  0  0  0  0  0  0  0  0
  -43.6007   58.8133   65.9652 C   0  0  0  0  0  0  0  0  0  0  0  0
  -44.9284   58.3736   65.8880 C   0  0  0  0  0  0  0  0  0  0  0  0
  -41.3003   58.5418   65.6021 O   0  0  0  0  0  0  0  0  0  0  0  0
  -43.3158   60.0488   66.4693 O   0  0  0  0  0  0  0  0  0  0  0  0
  -40.5625   58.0457   65.3064 H   0  0  0  0  0  0  0  0  0  0  0  0
  -42.4267   60.3405   66.5200 H   0  0  0  0  0  0  0  0  0  0  0  0
 12 13  1  0  0  0
  9 10  2  0  0  0
  9  8  1  0  0  0
  6  7  2  0  0  0
  6  8  1  0  0  0
 10 11  1  0  0  0
  7  5  1  0  0  0
 16 17  2  0  0  0
 16 18  1  0  0  0
 17 19  1  0  0  0
 18 21  2  0  0  0
 13 11  1  0  0  0
  5  4  1  0  0  0
  4  3  1  0  0  0
  3  2  1  0  0  0
  2  1  1  0  0  0
  1 14  1  0  0  0
 14 15  1  0  0  0
 15 21  1  0  0  0
 19 20  2  0  0  0
 19 22  1  0  0  0
 20 21  1  0  0  0
 20 23  1  0  0  0
 22 24  1  0  0  0
 23 25  1  0  0  0
M  END
> <minimizedAffinity>
-6.95095

> <CNNscore>
0.3099206090

> <CNNaffinity>
6.2437391281

> <CNN_VS>
1.9350634813

> <CNNaffinity_variance>
0.5312680006

$$$$
