/media/chris/experiments/cd1a-new-docking/inputs/ligands/5j1a_ligand.pdb


 25 25  0  0  0  0  0  0  0  0999 V2000
  -47.8117   61.0374   61.1910 C   0  0  0  0  0  0  0  0  0  0  0  0
  -46.3065   61.3023   61.3442 C   0  0  0  0  0  0  0  0  0  0  0  0
  -46.0486   62.2332   62.5211 C   0  0  0  0  0  0  0  0  0  0  0  0
  -44.8731   61.7008   63.3413 C   0  0  0  0  0  0  0  0  0  0  0  0
  -45.0815   60.2207   63.6612 C   0  0  0  0  0  0  0  0  0  0  0  0
  -46.4126   60.0363   65.9570 C   0  0  0  0  0  0  0  0  0  0  0  0
  -45.0800   60.0666   65.1832 C   0  0  0  0  0  0  0  0  0  0  0  0
  -47.7635   60.2796   65.2665 C   0  0  0  0  0  0  0  0  0  0  0  0
  -48.4846   58.9258   65.1909 C   0  0  0  0  0  0  0  0  0  0  0  0
  -49.9363   58.7993   64.6701 C   0  0  0  0  0  0  0  0  0  0  0  0
  -50.7275   60.0214   64.1642 C   0  0  0  0  0  0  0  0  0  0  0  0
  -50.5651   58.4114   62.2123 C   0  0  0  0  0  0  0  0  0  0  0  0
  -51.1767   59.7160   62.7287 C   0  0  0  0  0  0  0  0  0  0  0  0
  -48.2554   60.8523   59.7166 C   0  0  0  0  0  0  0  0  0  0  0  0
  -48.9494   59.4945   59.4560 C   0  0  0  0  0  0  0  0  0  0  0  0
  -46.2797   58.2344   57.2110 C   0  0  0  0  0  0  0  0  0  0  0  0
  -46.6158   56.8800   57.0839 C   0  0  0  0  0  0  0  0  0  0  0  0
  -47.0640   59.0873   57.9968 C   0  0  0  0  0  0  0  0  0  0  0  0
  -47.7403   56.4021   57.7566 C   0  0  0  0  0  0  0  0  0  0  0  0
  -48.5122   57.2550   58.5437 C   0  0  0  0  0  0  0  0  0  0  0  0
  -48.1733   58.6051   58.7006 C   0  0  0  0  0  0  0  0  0  0  0  0
  -48.1340   55.1070   57.6834 O   0  0  0  0  0  0  0  0  0  0  0  0
  -49.5988   56.7413   59.1895 O   0  0  0  0  0  0  0  0  0  0  0  0
  -47.6455   54.4973   57.1661 H   0  0  0  0  0  0  0  0  0  0  0  0
  -49.8234   55.8378   59.0829 H   0  0  0  0  0  0  0  0  0  0  0  0
 12 13  1  0  0  0
  9 10  2  0  0  0
  9  8  1  0  0  0
  6  7  2  0  0  0
  6  8  1  0  0  0
 10 11  1  0  0  0
  7  5  1  0  0  0
 16 17  2  0  0  0
 16 18  1  0  0  0
 17 19  1  0  0  0
 18 21  2  0  0  0
 13 11  1  0  0  0
  5  4  1  0  0  0
  4  3  1  0  0  0
  3  2  1  0  0  0
  2  1  1  0  0  0
  1 14  1  0  0  0
 14 15  1  0  0  0
 15 21  1  0  0  0
 19 20  2  0  0  0
 19 22  1  0  0  0
 20 21  1  0  0  0
 20 23  1  0  0  0
 22 24  1  0  0  0
 23 25  1  0  0  0
M  END
> <minimizedAffinity>
-8.07798

> <CNNscore>
0.5812102556

> <CNNaffinity>
6.8307418823

> <CNN_VS>
3.9700973034

> <CNNaffinity_variance>
0.3051988482

$$$$
/media/chris/experiments/cd1a-new-docking/inputs/ligands/5j1a_ligand.pdb


 25 25  0  0  0  0  0  0  0  0999 V2000
  -49.0879   58.3094   61.6691 C   0  0  0  0  0  0  0  0  0  0  0  0
  -50.1109   59.4548   61.6975 C   0  0  0  0  0  0  0  0  0  0  0  0
  -51.1563   59.2061   62.7761 C   0  0  0  0  0  0  0  0  0  0  0  0
  -51.1746   60.3870   63.7473 C   0  0  0  0  0  0  0  0  0  0  0  0
  -50.0237   60.2658   64.7458 C   0  0  0  0  0  0  0  0  0  0  0  0
  -49.7432   58.0097   66.1271 C   0  0  0  0  0  0  0  0  0  0  0  0
  -50.4798   59.3399   65.8748 C   0  0  0  0  0  0  0  0  0  0  0  0
  -48.6256   57.5068   65.2004 C   0  0  0  0  0  0  0  0  0  0  0  0
  -47.7199   56.5915   66.0373 C   0  0  0  0  0  0  0  0  0  0  0  0
  -46.1768   56.6960   65.9844 C   0  0  0  0  0  0  0  0  0  0  0  0
  -45.4632   57.7495   65.1148 C   0  0  0  0  0  0  0  0  0  0  0  0
  -46.0199   60.2198   65.2407 C   0  0  0  0  0  0  0  0  0  0  0  0
  -45.3554   59.0351   65.9462 C   0  0  0  0  0  0  0  0  0  0  0  0
  -49.5292   57.1142   60.7850 C   0  0  0  0  0  0  0  0  0  0  0  0
  -49.7700   57.5063   59.3080 C   0  0  0  0  0  0  0  0  0  0  0  0
  -46.7394   58.6861   57.5250 C   0  0  0  0  0  0  0  0  0  0  0  0
  -46.3018   57.5199   56.8832 C   0  0  0  0  0  0  0  0  0  0  0  0
  -47.8909   58.6659   58.3211 C   0  0  0  0  0  0  0  0  0  0  0  0
  -47.0321   56.3444   57.0570 C   0  0  0  0  0  0  0  0  0  0  0  0
  -48.1732   56.3295   57.8574 C   0  0  0  0  0  0  0  0  0  0  0  0
  -48.6075   57.4814   58.5256 C   0  0  0  0  0  0  0  0  0  0  0  0
  -46.6771   55.1756   56.4690 O   0  0  0  0  0  0  0  0  0  0  0  0
  -48.8512   55.1547   58.0045 O   0  0  0  0  0  0  0  0  0  0  0  0
  -45.9171   55.1381   55.9222 H   0  0  0  0  0  0  0  0  0  0  0  0
  -48.5586   54.3855   57.5564 H   0  0  0  0  0  0  0  0  0  0  0  0
 12 13  1  0  0  0
  9 10  2  0  0  0
  9  8  1  0  0  0
  6  7  2  0  0  0
  6  8  1  0  0  0
 10 11  1  0  0  0
  7  5  1  0  0  0
 16 17  2  0  0  0
 16 18  1  0  0  0
 17 19  1  0  0  0
 18 21  2  0  0  0
 13 11  1  0  0  0
  5  4  1  0  0  0
  4  3  1  0  0  0
  3  2  1  0  0  0
  2  1  1  0  0  0
  1 14  1  0  0  0
 14 15  1  0  0  0
 15 21  1  0  0  0
 19 20  2  0  0  0
 19 22  1  0  0  0
 20 21  1  0  0  0
 20 23  1  0  0  0
 22 24  1  0  0  0
 23 25  1  0  0  0
M  END
> <minimizedAffinity>
-8.39872

> <CNNscore>
0.4987521172

> <CNNaffinity>
6.8755884171

> <CNN_VS>
3.4292142391

> <CNNaffinity_variance>
0.1143202782

$$$$
/media/chris/experiments/cd1a-new-docking/inputs/ligands/5j1a_ligand.pdb


 25 25  0  0  0  0  0  0  0  0999 V2000
  -46.4058   57.1785   58.2558 C   0  0  0  0  0  0  0  0  0  0  0  0
  -47.1321   55.8373   58.4374 C   0  0  0  0  0  0  0  0  0  0  0  0
  -48.6034   56.0690   58.7527 C   0  0  0  0  0  0  0  0  0  0  0  0
  -49.0475   57.4030   58.1516 C   0  0  0  0  0  0  0  0  0  0  0  0
  -50.0664   58.0805   59.0677 C   0  0  0  0  0  0  0  0  0  0  0  0
  -50.3929   57.9685   61.7054 C   0  0  0  0  0  0  0  0  0  0  0  0
  -50.1530   57.2616   60.3570 C   0  0  0  0  0  0  0  0  0  0  0  0
  -50.4294   59.4995   61.8296 C   0  0  0  0  0  0  0  0  0  0  0  0
  -51.1778   59.8315   63.1289 C   0  0  0  0  0  0  0  0  0  0  0  0
  -50.4428   59.9771   64.4829 C   0  0  0  0  0  0  0  0  0  0  0  0
  -48.9127   59.8322   64.5966 C   0  0  0  0  0  0  0  0  0  0  0  0
  -49.9044   57.9263   65.9427 C   0  0  0  0  0  0  0  0  0  0  0  0
  -48.6292   58.5186   65.3380 C   0  0  0  0  0  0  0  0  0  0  0  0
  -45.5267   57.5701   59.4718 C   0  0  0  0  0  0  0  0  0  0  0  0
  -46.3524   57.9130   60.7342 C   0  0  0  0  0  0  0  0  0  0  0  0
  -47.2259   61.5173   60.6958 C   0  0  0  0  0  0  0  0  0  0  0  0
  -46.3019   62.0545   61.6020 C   0  0  0  0  0  0  0  0  0  0  0  0
  -47.2274   60.1454   60.4168 C   0  0  0  0  0  0  0  0  0  0  0  0
  -45.3916   61.1970   62.2192 C   0  0  0  0  0  0  0  0  0  0  0  0
  -45.4038   59.8308   61.9429 C   0  0  0  0  0  0  0  0  0  0  0  0
  -46.3383   59.2762   61.0591 C   0  0  0  0  0  0  0  0  0  0  0  0
  -44.4649   61.6378   63.1051 O   0  0  0  0  0  0  0  0  0  0  0  0
  -44.4995   59.0292   62.5764 O   0  0  0  0  0  0  0  0  0  0  0  0
  -44.4195   62.5483   63.3215 H   0  0  0  0  0  0  0  0  0  0  0  0
  -43.8753   59.4027   63.1671 H   0  0  0  0  0  0  0  0  0  0  0  0
 12 13  1  0  0  0
  9 10  2  0  0  0
  9  8  1  0  0  0
  6  7  2  0  0  0
  6  8  1  0  0  0
 10 11  1  0  0  0
  7  5  1  0  0  0
 16 17  2  0  0  0
 16 18  1  0  0  0
 17 19  1  0  0  0
 18 21  2  0  0  0
 13 11  1  0  0  0
  5  4  1  0  0  0
  4  3  1  0  0  0
  3  2  1  0  0  0
  2  1  1  0  0  0
  1 14  1  0  0  0
 14 15  1  0  0  0
 15 21  1  0  0  0
 19 20  2  0  0  0
 19 22  1  0  0  0
 20 21  1  0  0  0
 20 23  1  0  0  0
 22 24  1  0  0  0
 23 25  1  0  0  0
M  END
> <minimizedAffinity>
-7.72931

> <CNNscore>
0.4799699783

> <CNNaffinity>
6.5308570862

> <CNN_VS>
3.1346154213

> <CNNaffinity_variance>
0.1189111844

$$$$
/media/chris/experiments/cd1a-new-docking/inputs/ligands/5j1a_ligand.pdb


 25 25  0  0  0  0  0  0  0  0999 V2000
  -50.7319   58.2810   61.8135 C   0  0  0  0  0  0  0  0  0  0  0  0
  -50.9242   59.6888   62.3969 C   0  0  0  0  0  0  0  0  0  0  0  0
  -50.7095   59.6725   63.9042 C   0  0  0  0  0  0  0  0  0  0  0  0
  -49.9089   58.4280   64.2895 C   0  0  0  0  0  0  0  0  0  0  0  0
  -49.6902   58.3898   65.8018 C   0  0  0  0  0  0  0  0  0  0  0  0
  -47.8881   60.2756   66.3241 C   0  0  0  0  0  0  0  0  0  0  0  0
  -49.3560   59.8099   66.2619 C   0  0  0  0  0  0  0  0  0  0  0  0
  -46.7160   59.3195   66.0541 C   0  0  0  0  0  0  0  0  0  0  0  0
  -45.5900   60.1497   65.4209 C   0  0  0  0  0  0  0  0  0  0  0  0
  -45.3897   60.2238   63.8882 C   0  0  0  0  0  0  0  0  0  0  0  0
  -46.3322   59.4963   62.9095 C   0  0  0  0  0  0  0  0  0  0  0  0
  -46.8615   61.3977   61.3180 C   0  0  0  0  0  0  0  0  0  0  0  0
  -47.3880   60.5105   62.4486 C   0  0  0  0  0  0  0  0  0  0  0  0
  -49.9777   58.2760   60.4585 C   0  0  0  0  0  0  0  0  0  0  0  0
  -48.6194   57.5382   60.5210 C   0  0  0  0  0  0  0  0  0  0  0  0
  -46.7224   58.8437   57.6137 C   0  0  0  0  0  0  0  0  0  0  0  0
  -46.5569   57.6946   56.8292 C   0  0  0  0  0  0  0  0  0  0  0  0
  -47.4103   58.7761   58.8312 C   0  0  0  0  0  0  0  0  0  0  0  0
  -47.0862   56.4881   57.2868 C   0  0  0  0  0  0  0  0  0  0  0  0
  -47.7632   56.4263   58.5037 C   0  0  0  0  0  0  0  0  0  0  0  0
  -47.9136   57.5614   59.3105 C   0  0  0  0  0  0  0  0  0  0  0  0
  -46.9715   55.3330   56.5866 O   0  0  0  0  0  0  0  0  0  0  0  0
  -48.2572   55.2226   58.9147 O   0  0  0  0  0  0  0  0  0  0  0  0
  -46.5245   55.3267   55.7632 H   0  0  0  0  0  0  0  0  0  0  0  0
  -48.1554   54.4648   58.3731 H   0  0  0  0  0  0  0  0  0  0  0  0
 12 13  1  0  0  0
  9 10  2  0  0  0
  9  8  1  0  0  0
  6  7  2  0  0  0
  6  8  1  0  0  0
 10 11  1  0  0  0
  7  5  1  0  0  0
 16 17  2  0  0  0
 16 18  1  0  0  0
 17 19  1  0  0  0
 18 21  2  0  0  0
 13 11  1  0  0  0
  5  4  1  0  0  0
  4  3  1  0  0  0
  3  2  1  0  0  0
  2  1  1  0  0  0
  1 14  1  0  0  0
 14 15  1  0  0  0
 15 21  1  0  0  0
 19 20  2  0  0  0
 19 22  1  0  0  0
 20 21  1  0  0  0
 20 23  1  0  0  0
 22 24  1  0  0  0
 23 25  1  0  0  0
M  END
> <minimizedAffinity>
-8.04057

> <CNNscore>
0.4774199426

> <CNNaffinity>
6.8228683472

> <CNN_VS>
3.2573733330

> <CNNaffinity_variance>
0.0783299655

$$$$
/media/chris/experiments/cd1a-new-docking/inputs/ligands/5j1a_ligand.pdb


 25 25  0  0  0  0  0  0  0  0999 V2000
  -47.5467   59.1450   66.5665 C   0  0  0  0  0  0  0  0  0  0  0  0
  -48.9203   59.8320   66.5453 C   0  0  0  0  0  0  0  0  0  0  0  0
  -49.8227   59.1821   65.5053 C   0  0  0  0  0  0  0  0  0  0  0  0
  -50.4893   60.2690   64.6613 C   0  0  0  0  0  0  0  0  0  0  0  0
  -51.0474   59.6665   63.3721 C   0  0  0  0  0  0  0  0  0  0  0  0
  -49.4519   58.3908   61.6681 C   0  0  0  0  0  0  0  0  0  0  0  0
  -50.1938   58.4475   63.0179 C   0  0  0  0  0  0  0  0  0  0  0  0
  -49.6320   59.4720   60.5914 C   0  0  0  0  0  0  0  0  0  0  0  0
  -49.4836   58.7827   59.2271 C   0  0  0  0  0  0  0  0  0  0  0  0
  -48.1783   58.8746   58.4009 C   0  0  0  0  0  0  0  0  0  0  0  0
  -46.9410   59.6340   58.9182 C   0  0  0  0  0  0  0  0  0  0  0  0
  -45.8048   57.3705   59.0364 C   0  0  0  0  0  0  0  0  0  0  0  0
  -46.1358   58.6609   59.7901 C   0  0  0  0  0  0  0  0  0  0  0  0
  -46.4389   59.9656   65.8564 C   0  0  0  0  0  0  0  0  0  0  0  0
  -46.1353   59.4662   64.4241 C   0  0  0  0  0  0  0  0  0  0  0  0
  -46.5688   61.9760   61.7282 C   0  0  0  0  0  0  0  0  0  0  0  0
  -45.2803   62.5154   61.6171 C   0  0  0  0  0  0  0  0  0  0  0  0
  -46.8347   60.9651   62.6595 C   0  0  0  0  0  0  0  0  0  0  0  0
  -44.2752   62.0286   62.4526 C   0  0  0  0  0  0  0  0  0  0  0  0
  -44.5486   61.0275   63.3832 C   0  0  0  0  0  0  0  0  0  0  0  0
  -45.8377   60.4974   63.5230 C   0  0  0  0  0  0  0  0  0  0  0  0
  -43.0032   62.4952   62.4060 O   0  0  0  0  0  0  0  0  0  0  0  0
  -43.5358   60.5879   64.1847 O   0  0  0  0  0  0  0  0  0  0  0  0
  -42.7730   63.1682   61.7961 H   0  0  0  0  0  0  0  0  0  0  0  0
  -42.6744   60.9441   64.0891 H   0  0  0  0  0  0  0  0  0  0  0  0
 12 13  1  0  0  0
  9 10  2  0  0  0
  9  8  1  0  0  0
  6  7  2  0  0  0
  6  8  1  0  0  0
 10 11  1  0  0  0
  7  5  1  0  0  0
 16 17  2  0  0  0
 16 18  1  0  0  0
 17 19  1  0  0  0
 18 21  2  0  0  0
 13 11  1  0  0  0
  5  4  1  0  0  0
  4  3  1  0  0  0
  3  2  1  0  0  0
  2  1  1  0  0  0
  1 14  1  0  0  0
 14 15  1  0  0  0
 15 21  1  0  0  0
 19 20  2  0  0  0
 19 22  1  0  0  0
 20 21  1  0  0  0
 20 23  1  0  0  0
 22 24  1  0  0  0
 23 25  1  0  0  0
M  END
> <minimizedAffinity>
-7.35248

> <CNNscore>
0.4419123828

> <CNNaffinity>
6.2820472717

> <CNN_VS>
2.7761144638

> <CNNaffinity_variance>
0.1487335861

$$$$
/media/chris/experiments/cd1a-new-docking/inputs/ligands/5j1a_ligand.pdb


 25 25  0  0  0  0  0  0  0  0999 V2000
  -50.2537   59.2145   64.7068 C   0  0  0  0  0  0  0  0  0  0  0  0
  -51.0441   59.9241   63.5974 C   0  0  0  0  0  0  0  0  0  0  0  0
  -50.8848   59.1846   62.2761 C   0  0  0  0  0  0  0  0  0  0  0  0
  -50.0219   57.9408   62.4913 C   0  0  0  0  0  0  0  0  0  0  0  0
  -49.3839   57.5075   61.1716 C   0  0  0  0  0  0  0  0  0  0  0  0
  -49.8605   57.7736   58.5680 C   0  0  0  0  0  0  0  0  0  0  0  0
  -50.2404   58.0647   60.0331 C   0  0  0  0  0  0  0  0  0  0  0  0
  -48.5669   57.0352   58.1912 C   0  0  0  0  0  0  0  0  0  0  0  0
  -47.8055   57.9299   57.2021 C   0  0  0  0  0  0  0  0  0  0  0  0
  -46.9570   59.1349   57.6739 C   0  0  0  0  0  0  0  0  0  0  0  0
  -46.7998   59.4831   59.1670 C   0  0  0  0  0  0  0  0  0  0  0  0
  -47.9424   60.9730   60.8708 C   0  0  0  0  0  0  0  0  0  0  0  0
  -47.5236   60.8150   59.4071 C   0  0  0  0  0  0  0  0  0  0  0  0
  -49.2671   60.1503   65.4523 C   0  0  0  0  0  0  0  0  0  0  0  0
  -47.8065   60.0087   64.9629 C   0  0  0  0  0  0  0  0  0  0  0  0
  -46.4173   58.0350   67.7789 C   0  0  0  0  0  0  0  0  0  0  0  0
  -45.5586   57.1449   67.1202 C   0  0  0  0  0  0  0  0  0  0  0  0
  -47.1516   58.9790   67.0511 C   0  0  0  0  0  0  0  0  0  0  0  0
  -45.4549   57.2171   65.7312 C   0  0  0  0  0  0  0  0  0  0  0  0
  -46.1949   58.1542   65.0120 C   0  0  0  0  0  0  0  0  0  0  0  0
  -47.0765   59.0327   65.6547 C   0  0  0  0  0  0  0  0  0  0  0  0
  -44.6455   56.3945   65.0200 O   0  0  0  0  0  0  0  0  0  0  0  0
  -46.0670   58.1828   63.6539 O   0  0  0  0  0  0  0  0  0  0  0  0
  -44.1292   55.7489   65.4612 H   0  0  0  0  0  0  0  0  0  0  0  0
  -45.4765   57.5941   63.2264 H   0  0  0  0  0  0  0  0  0  0  0  0
 12 13  1  0  0  0
  9 10  2  0  0  0
  9  8  1  0  0  0
  6  7  2  0  0  0
  6  8  1  0  0  0
 10 11  1  0  0  0
  7  5  1  0  0  0
 16 17  2  0  0  0
 16 18  1  0  0  0
 17 19  1  0  0  0
 18 21  2  0  0  0
 13 11  1  0  0  0
  5  4  1  0  0  0
  4  3  1  0  0  0
  3  2  1  0  0  0
  2  1  1  0  0  0
  1 14  1  0  0  0
 14 15  1  0  0  0
 15 21  1  0  0  0
 19 20  2  0  0  0
 19 22  1  0  0  0
 20 21  1  0  0  0
 20 23  1  0  0  0
 22 24  1  0  0  0
 23 25  1  0  0  0
M  END
> <minimizedAffinity>
-7.93443

> <CNNscore>
0.4134556055

> <CNNaffinity>
6.4150648117

> <CNN_VS>
2.6523444653

> <CNNaffinity_variance>
0.1763462722

$$$$
/media/chris/experiments/cd1a-new-docking/inputs/ligands/5j1a_ligand.pdb


 25 25  0  0  0  0  0  0  0  0999 V2000
  -50.7193   58.5543   62.0355 C   0  0  0  0  0  0  0  0  0  0  0  0
  -51.1767   59.8155   62.7834 C   0  0  0  0  0  0  0  0  0  0  0  0
  -50.1866   60.1677   63.8851 C   0  0  0  0  0  0  0  0  0  0  0  0
  -50.8506   59.9663   65.2477 C   0  0  0  0  0  0  0  0  0  0  0  0
  -49.8511   59.3676   66.2373 C   0  0  0  0  0  0  0  0  0  0  0  0
  -48.2611   57.3778   65.4698 C   0  0  0  0  0  0  0  0  0  0  0  0
  -49.6562   57.8950   65.8718 C   0  0  0  0  0  0  0  0  0  0  0  0
  -47.0588   58.3194   65.3005 C   0  0  0  0  0  0  0  0  0  0  0  0
  -46.7744   58.4258   63.7951 C   0  0  0  0  0  0  0  0  0  0  0  0
  -46.6129   59.7922   63.0868 C   0  0  0  0  0  0  0  0  0  0  0  0
  -46.6931   61.1229   63.8603 C   0  0  0  0  0  0  0  0  0  0  0  0
  -44.2277   61.2745   63.2887 C   0  0  0  0  0  0  0  0  0  0  0  0
  -45.5616   62.0229   63.3452 C   0  0  0  0  0  0  0  0  0  0  0  0
  -49.4315   58.7700   61.1990 C   0  0  0  0  0  0  0  0  0  0  0  0
  -48.8152   57.4496   60.6794 C   0  0  0  0  0  0  0  0  0  0  0  0
  -46.9455   59.0707   57.9169 C   0  0  0  0  0  0  0  0  0  0  0  0
  -46.6882   57.9912   57.0614 C   0  0  0  0  0  0  0  0  0  0  0  0
  -47.6537   58.8756   59.1087 C   0  0  0  0  0  0  0  0  0  0  0  0
  -47.1470   56.7247   57.4230 C   0  0  0  0  0  0  0  0  0  0  0  0
  -47.8446   56.5361   58.6149 C   0  0  0  0  0  0  0  0  0  0  0  0
  -48.0865   57.6012   59.4920 C   0  0  0  0  0  0  0  0  0  0  0  0
  -46.9416   55.6302   56.6499 O   0  0  0  0  0  0  0  0  0  0  0  0
  -48.2673   55.2779   58.9311 O   0  0  0  0  0  0  0  0  0  0  0  0
  -46.4775   55.7091   55.8398 H   0  0  0  0  0  0  0  0  0  0  0  0
  -48.1043   54.5672   58.3426 H   0  0  0  0  0  0  0  0  0  0  0  0
 12 13  1  0  0  0
  9 10  2  0  0  0
  9  8  1  0  0  0
  6  7  2  0  0  0
  6  8  1  0  0  0
 10 11  1  0  0  0
  7  5  1  0  0  0
 16 17  2  0  0  0
 16 18  1  0  0  0
 17 19  1  0  0  0
 18 21  2  0  0  0
 13 11  1  0  0  0
  5  4  1  0  0  0
  4  3  1  0  0  0
  3  2  1  0  0  0
  2  1  1  0  0  0
  1 14  1  0  0  0
 14 15  1  0  0  0
 15 21  1  0  0  0
 19 20  2  0  0  0
 19 22  1  0  0  0
 20 21  1  0  0  0
 20 23  1  0  0  0
 22 24  1  0  0  0
 23 25  1  0  0  0
M  END
> <minimizedAffinity>
-7.85467

> <CNNscore>
0.3745577633

> <CNNaffinity>
6.7481412888

> <CNN_VS>
2.5275688171

> <CNNaffinity_variance>
0.0854311436

$$$$
/media/chris/experiments/cd1a-new-docking/inputs/ligands/5j1a_ligand.pdb


 25 25  0  0  0  0  0  0  0  0999 V2000
  -48.0592   59.1981   63.9589 C   0  0  0  0  0  0  0  0  0  0  0  0
  -48.6591   58.0968   63.0721 C   0  0  0  0  0  0  0  0  0  0  0  0
  -50.1751   58.2269   63.0169 C   0  0  0  0  0  0  0  0  0  0  0  0
  -50.6104   58.4831   61.5737 C   0  0  0  0  0  0  0  0  0  0  0  0
  -49.8942   57.5189   60.6284 C   0  0  0  0  0  0  0  0  0  0  0  0
  -49.2671   57.4380   58.0444 C   0  0  0  0  0  0  0  0  0  0  0  0
  -50.1028   58.0236   59.1995 C   0  0  0  0  0  0  0  0  0  0  0  0
  -48.1276   56.4364   58.2872 C   0  0  0  0  0  0  0  0  0  0  0  0
  -46.8354   57.0850   57.7697 C   0  0  0  0  0  0  0  0  0  0  0  0
  -45.8387   57.7943   58.7175 C   0  0  0  0  0  0  0  0  0  0  0  0
  -46.0701   57.8580   60.2399 C   0  0  0  0  0  0  0  0  0  0  0  0
  -47.1265   60.1432   59.9396 C   0  0  0  0  0  0  0  0  0  0  0  0
  -46.0356   59.3370   60.6486 C   0  0  0  0  0  0  0  0  0  0  0  0
  -46.5840   58.9312   64.3555 C   0  0  0  0  0  0  0  0  0  0  0  0
  -45.8598   60.1902   64.8881 C   0  0  0  0  0  0  0  0  0  0  0  0
  -45.5572   62.7379   62.2098 C   0  0  0  0  0  0  0  0  0  0  0  0
  -44.2409   62.5475   61.7687 C   0  0  0  0  0  0  0  0  0  0  0  0
  -46.0792   61.9474   63.2407 C   0  0  0  0  0  0  0  0  0  0  0  0
  -43.4654   61.5613   62.3781 C   0  0  0  0  0  0  0  0  0  0  0  0
  -43.9888   60.7832   63.4093 C   0  0  0  0  0  0  0  0  0  0  0  0
  -45.2941   60.9799   63.8779 C   0  0  0  0  0  0  0  0  0  0  0  0
  -42.1852   61.3129   62.0081 O   0  0  0  0  0  0  0  0  0  0  0  0
  -43.1906   59.8357   63.9810 O   0  0  0  0  0  0  0  0  0  0  0  0
  -41.7913   61.8113   61.3193 H   0  0  0  0  0  0  0  0  0  0  0  0
  -42.3178   59.7060   63.6656 H   0  0  0  0  0  0  0  0  0  0  0  0
 12 13  1  0  0  0
  9 10  2  0  0  0
  9  8  1  0  0  0
  6  7  2  0  0  0
  6  8  1  0  0  0
 10 11  1  0  0  0
  7  5  1  0  0  0
 16 17  2  0  0  0
 16 18  1  0  0  0
 17 19  1  0  0  0
 18 21  2  0  0  0
 13 11  1  0  0  0
  5  4  1  0  0  0
  4  3  1  0  0  0
  3  2  1  0  0  0
  2  1  1  0  0  0
  1 14  1  0  0  0
 14 15  1  0  0  0
 15 21  1  0  0  0
 19 20  2  0  0  0
 19 22  1  0  0  0
 20 21  1  0  0  0
 20 23  1  0  0  0
 22 24  1  0  0  0
 23 25  1  0  0  0
M  END
> <minimizedAffinity>
-7.27319

> <CNNscore>
0.3115444481

> <CNNaffinity>
6.0999503136

> <CNN_VS>
1.9004056454

> <CNNaffinity_variance>
0.1991515011

$$$$
/media/chris/experiments/cd1a-new-docking/inputs/ligands/5j1a_ligand.pdb


 25 25  0  0  0  0  0  0  0  0999 V2000
  -45.2021   58.2162   62.5470 C   0  0  0  0  0  0  0  0  0  0  0  0
  -43.8798   57.6453   63.0806 C   0  0  0  0  0  0  0  0  0  0  0  0
  -43.8402   57.7297   64.6003 C   0  0  0  0  0  0  0  0  0  0  0  0
  -44.4382   56.4544   65.1953 C   0  0  0  0  0  0  0  0  0  0  0  0
  -45.8266   56.7407   65.7672 C   0  0  0  0  0  0  0  0  0  0  0  0
  -46.1732   58.9433   67.2180 C   0  0  0  0  0  0  0  0  0  0  0  0
  -45.6431   57.5026   67.0809 C   0  0  0  0  0  0  0  0  0  0  0  0
  -46.7828   59.7054   66.0312 C   0  0  0  0  0  0  0  0  0  0  0  0
  -48.1155   60.2996   66.5100 C   0  0  0  0  0  0  0  0  0  0  0  0
  -49.4682   59.5970   66.2430 C   0  0  0  0  0  0  0  0  0  0  0  0
  -49.5500   58.2426   65.5121 C   0  0  0  0  0  0  0  0  0  0  0  0
  -50.7983   59.7760   63.9251 C   0  0  0  0  0  0  0  0  0  0  0  0
  -49.9174   58.5306   64.0500 C   0  0  0  0  0  0  0  0  0  0  0  0
  -45.3295   58.1299   61.0039 C   0  0  0  0  0  0  0  0  0  0  0  0
  -46.7227   57.6484   60.5344 C   0  0  0  0  0  0  0  0  0  0  0  0
  -46.2334   57.8366   56.8628 C   0  0  0  0  0  0  0  0  0  0  0  0
  -46.8941   56.6839   56.4176 C   0  0  0  0  0  0  0  0  0  0  0  0
  -46.1886   58.1436   58.2280 C   0  0  0  0  0  0  0  0  0  0  0  0
  -47.4993   55.8518   57.3592 C   0  0  0  0  0  0  0  0  0  0  0  0
  -47.4441   56.1593   58.7176 C   0  0  0  0  0  0  0  0  0  0  0  0
  -46.7652   57.2942   59.1791 C   0  0  0  0  0  0  0  0  0  0  0  0
  -48.1598   54.7206   57.0102 O   0  0  0  0  0  0  0  0  0  0  0  0
  -48.0439   55.3118   59.6029 O   0  0  0  0  0  0  0  0  0  0  0  0
  -48.2225   54.4739   56.1085 H   0  0  0  0  0  0  0  0  0  0  0  0
  -48.4976   54.5533   59.2916 H   0  0  0  0  0  0  0  0  0  0  0  0
 12 13  1  0  0  0
  9 10  2  0  0  0
  9  8  1  0  0  0
  6  7  2  0  0  0
  6  8  1  0  0  0
 10 11  1  0  0  0
  7  5  1  0  0  0
 16 17  2  0  0  0
 16 18  1  0  0  0
 17 19  1  0  0  0
 18 21  2  0  0  0
 13 11  1  0  0  0
  5  4  1  0  0  0
  4  3  1  0  0  0
  3  2  1  0  0  0
  2  1  1  0  0  0
  1 14  1  0  0  0
 14 15  1  0  0  0
 15 21  1  0  0  0
 19 20  2  0  0  0
 19 22  1  0  0  0
 20 21  1  0  0  0
 20 23  1  0  0  0
 22 24  1  0  0  0
 23 25  1  0  0  0
M  END
> <minimizedAffinity>
-8.15940

> <CNNscore>
0.2741051912

> <CNNaffinity>
6.4777479172

> <CNN_VS>
1.7755843401

> <CNNaffinity_variance>
0.1392114460

$$$$
