/media/chris/experiments/cd1a-new-docking/inputs/ligands/5j1a_ligand.pdb


 25 25  0  0  0  0  0  0  0  0999 V2000
  -47.6337   59.0508   63.5616 C   0  0  0  0  0  0  0  0  0  0  0  0
  -49.0362   58.9903   62.9384 C   0  0  0  0  0  0  0  0  0  0  0  0
  -49.2161   57.6936   62.1610 C   0  0  0  0  0  0  0  0  0  0  0  0
  -50.4532   57.8038   61.2691 C   0  0  0  0  0  0  0  0  0  0  0  0
  -50.1486   57.2542   59.8757 C   0  0  0  0  0  0  0  0  0  0  0  0
  -48.1887   55.7341   58.9144 C   0  0  0  0  0  0  0  0  0  0  0  0
  -49.1870   56.0756   60.0379 C   0  0  0  0  0  0  0  0  0  0  0  0
  -48.1990   56.4650   57.5630 C   0  0  0  0  0  0  0  0  0  0  0  0
  -46.7775   56.9939   57.3224 C   0  0  0  0  0  0  0  0  0  0  0  0
  -46.3242   58.3838   57.8296 C   0  0  0  0  0  0  0  0  0  0  0  0
  -47.2645   59.3007   58.6363 C   0  0  0  0  0  0  0  0  0  0  0  0
  -45.8023   58.3735   60.4886 C   0  0  0  0  0  0  0  0  0  0  0  0
  -46.5836   59.5881   59.9814 C   0  0  0  0  0  0  0  0  0  0  0  0
  -47.2938   60.4337   64.1755 C   0  0  0  0  0  0  0  0  0  0  0  0
  -45.8464   60.5206   64.7151 C   0  0  0  0  0  0  0  0  0  0  0  0
  -44.5510   62.4744   61.8411 C   0  0  0  0  0  0  0  0  0  0  0  0
  -43.1820   62.1784   61.8762 C   0  0  0  0  0  0  0  0  0  0  0  0
  -45.4202   61.9150   62.7854 C   0  0  0  0  0  0  0  0  0  0  0  0
  -42.7060   61.3224   62.8692 C   0  0  0  0  0  0  0  0  0  0  0  0
  -43.5757   60.7753   63.8111 C   0  0  0  0  0  0  0  0  0  0  0  0
  -44.9422   61.0828   63.8039 C   0  0  0  0  0  0  0  0  0  0  0  0
  -41.3971   60.9845   62.9701 O   0  0  0  0  0  0  0  0  0  0  0  0
  -43.0637   59.9492   64.7688 O   0  0  0  0  0  0  0  0  0  0  0  0
  -40.7759   61.3285   62.3587 H   0  0  0  0  0  0  0  0  0  0  0  0
  -42.1492   59.7450   64.7715 H   0  0  0  0  0  0  0  0  0  0  0  0
 12 13  1  0  0  0
  9 10  2  0  0  0
  9  8  1  0  0  0
  6  7  2  0  0  0
  6  8  1  0  0  0
 10 11  1  0  0  0
  7  5  1  0  0  0
 16 17  2  0  0  0
 16 18  1  0  0  0
 17 19  1  0  0  0
 18 21  2  0  0  0
 13 11  1  0  0  0
  5  4  1  0  0  0
  4  3  1  0  0  0
  3  2  1  0  0  0
  2  1  1  0  0  0
  1 14  1  0  0  0
 14 15  1  0  0  0
 15 21  1  0  0  0
 19 20  2  0  0  0
 19 22  1  0  0  0
 20 21  1  0  0  0
 20 23  1  0  0  0
 22 24  1  0  0  0
 23 25  1  0  0  0
M  END
> <minimizedAffinity>
-7.57267

> <CNNscore>
0.4692649245

> <CNNaffinity>
6.2129278183

> <CNN_VS>
2.9155089855

> <CNNaffinity_variance>
0.1851939708

$$$$
/media/chris/experiments/cd1a-new-docking/inputs/ligands/5j1a_ligand.pdb


 25 25  0  0  0  0  0  0  0  0999 V2000
  -48.7814   57.9557   65.2226 C   0  0  0  0  0  0  0  0  0  0  0  0
  -49.9926   58.8096   65.6261 C   0  0  0  0  0  0  0  0  0  0  0  0
  -50.0386   60.0887   64.8015 C   0  0  0  0  0  0  0  0  0  0  0  0
  -51.1770   59.9965   63.7848 C   0  0  0  0  0  0  0  0  0  0  0  0
  -50.6115   59.8249   62.3751 C   0  0  0  0  0  0  0  0  0  0  0  0
  -49.7531   57.8394   60.8270 C   0  0  0  0  0  0  0  0  0  0  0  0
  -50.4263   58.3272   62.1247 C   0  0  0  0  0  0  0  0  0  0  0  0
  -49.3610   58.8047   59.6977 C   0  0  0  0  0  0  0  0  0  0  0  0
  -49.4172   58.0123   58.3835 C   0  0  0  0  0  0  0  0  0  0  0  0
  -48.2208   57.9666   57.4031 C   0  0  0  0  0  0  0  0  0  0  0  0
  -46.8921   58.6855   57.7084 C   0  0  0  0  0  0  0  0  0  0  0  0
  -45.7384   57.9353   59.8379 C   0  0  0  0  0  0  0  0  0  0  0  0
  -45.9493   57.6569   58.3477 C   0  0  0  0  0  0  0  0  0  0  0  0
  -47.5016   58.7910   64.9594 C   0  0  0  0  0  0  0  0  0  0  0  0
  -46.9629   58.6406   63.5170 C   0  0  0  0  0  0  0  0  0  0  0  0
  -46.6699   61.6954   61.4343 C   0  0  0  0  0  0  0  0  0  0  0  0
  -45.4127   62.1881   61.8083 C   0  0  0  0  0  0  0  0  0  0  0  0
  -47.1673   60.5184   62.0063 C   0  0  0  0  0  0  0  0  0  0  0  0
  -44.6734   61.4865   62.7604 C   0  0  0  0  0  0  0  0  0  0  0  0
  -45.1781   60.3195   63.3318 C   0  0  0  0  0  0  0  0  0  0  0  0
  -46.4441   59.8296   62.9865 C   0  0  0  0  0  0  0  0  0  0  0  0
  -43.4488   61.8949   63.1740 O   0  0  0  0  0  0  0  0  0  0  0  0
  -44.4227   59.6709   64.2648 O   0  0  0  0  0  0  0  0  0  0  0  0
  -43.0696   62.6740   62.8173 H   0  0  0  0  0  0  0  0  0  0  0  0
  -43.5762   60.0006   64.4940 H   0  0  0  0  0  0  0  0  0  0  0  0
 12 13  1  0  0  0
  9 10  2  0  0  0
  9  8  1  0  0  0
  6  7  2  0  0  0
  6  8  1  0  0  0
 10 11  1  0  0  0
  7  5  1  0  0  0
 16 17  2  0  0  0
 16 18  1  0  0  0
 17 19  1  0  0  0
 18 21  2  0  0  0
 13 11  1  0  0  0
  5  4  1  0  0  0
  4  3  1  0  0  0
  3  2  1  0  0  0
  2  1  1  0  0  0
  1 14  1  0  0  0
 14 15  1  0  0  0
 15 21  1  0  0  0
 19 20  2  0  0  0
 19 22  1  0  0  0
 20 21  1  0  0  0
 20 23  1  0  0  0
 22 24  1  0  0  0
 23 25  1  0  0  0
M  END
> <minimizedAffinity>
-7.71037

> <CNNscore>
0.4185383320

> <CNNaffinity>
6.3258848190

> <CNN_VS>
2.6476252079

> <CNNaffinity_variance>
0.2192068398

$$$$
/media/chris/experiments/cd1a-new-docking/inputs/ligands/5j1a_ligand.pdb


 25 25  0  0  0  0  0  0  0  0999 V2000
  -49.4727   60.2586   61.6579 C   0  0  0  0  0  0  0  0  0  0  0  0
  -50.4296   59.1497   62.1202 C   0  0  0  0  0  0  0  0  0  0  0  0
  -50.4907   59.1014   63.6408 C   0  0  0  0  0  0  0  0  0  0  0  0
  -49.4982   58.0586   64.1559 C   0  0  0  0  0  0  0  0  0  0  0  0
  -49.5308   58.0098   65.6833 C   0  0  0  0  0  0  0  0  0  0  0  0
  -48.2711   60.2522   66.3620 C   0  0  0  0  0  0  0  0  0  0  0  0
  -49.5768   59.4502   66.1963 C   0  0  0  0  0  0  0  0  0  0  0  0
  -46.8892   59.6166   66.1448 C   0  0  0  0  0  0  0  0  0  0  0  0
  -46.5615   58.8019   67.4045 C   0  0  0  0  0  0  0  0  0  0  0  0
  -46.2355   57.2905   67.3404 C   0  0  0  0  0  0  0  0  0  0  0  0
  -46.1867   56.5258   66.0031 C   0  0  0  0  0  0  0  0  0  0  0  0
  -44.5556   57.4036   64.2717 C   0  0  0  0  0  0  0  0  0  0  0  0
  -44.7297   56.5361   65.5207 C   0  0  0  0  0  0  0  0  0  0  0  0
  -49.2932   60.3122   60.1185 C   0  0  0  0  0  0  0  0  0  0  0  0
  -49.6320   58.9743   59.4195 C   0  0  0  0  0  0  0  0  0  0  0  0
  -46.4795   58.4085   57.5496 C   0  0  0  0  0  0  0  0  0  0  0  0
  -46.2739   57.0339   57.7270 C   0  0  0  0  0  0  0  0  0  0  0  0
  -47.5975   59.0350   58.1132 C   0  0  0  0  0  0  0  0  0  0  0  0
  -47.1998   56.3083   58.4762 C   0  0  0  0  0  0  0  0  0  0  0  0
  -48.3065   56.9400   59.0411 C   0  0  0  0  0  0  0  0  0  0  0  0
  -48.5110   58.3178   58.8938 C   0  0  0  0  0  0  0  0  0  0  0  0
  -47.0746   54.9759   58.6920 O   0  0  0  0  0  0  0  0  0  0  0  0
  -49.1817   56.1912   59.7727 O   0  0  0  0  0  0  0  0  0  0  0  0
  -46.3463   54.5093   58.3316 H   0  0  0  0  0  0  0  0  0  0  0  0
  -49.0427   55.2697   59.8697 H   0  0  0  0  0  0  0  0  0  0  0  0
 12 13  1  0  0  0
  9 10  2  0  0  0
  9  8  1  0  0  0
  6  7  2  0  0  0
  6  8  1  0  0  0
 10 11  1  0  0  0
  7  5  1  0  0  0
 16 17  2  0  0  0
 16 18  1  0  0  0
 17 19  1  0  0  0
 18 21  2  0  0  0
 13 11  1  0  0  0
  5  4  1  0  0  0
  4  3  1  0  0  0
  3  2  1  0  0  0
  2  1  1  0  0  0
  1 14  1  0  0  0
 14 15  1  0  0  0
 15 21  1  0  0  0
 19 20  2  0  0  0
 19 22  1  0  0  0
 20 21  1  0  0  0
 20 23  1  0  0  0
 22 24  1  0  0  0
 23 25  1  0  0  0
M  END
> <minimizedAffinity>
-8.22996

> <CNNscore>
0.4056479633

> <CNNaffinity>
6.5079803467

> <CNN_VS>
2.6399490833

> <CNNaffinity_variance>
0.2793675661

$$$$
/media/chris/experiments/cd1a-new-docking/inputs/ligands/5j1a_ligand.pdb


 25 25  0  0  0  0  0  0  0  0999 V2000
  -50.4746   59.0259   65.2219 C   0  0  0  0  0  0  0  0  0  0  0  0
  -50.7829   60.2171   64.3027 C   0  0  0  0  0  0  0  0  0  0  0  0
  -51.1777   59.7289   62.9157 C   0  0  0  0  0  0  0  0  0  0  0  0
  -50.0963   58.7892   62.3813 C   0  0  0  0  0  0  0  0  0  0  0  0
  -49.7252   59.1735   60.9492 C   0  0  0  0  0  0  0  0  0  0  0  0
  -47.9416   60.9005   59.9941 C   0  0  0  0  0  0  0  0  0  0  0  0
  -49.0638   60.5522   60.9915 C   0  0  0  0  0  0  0  0  0  0  0  0
  -47.3643   59.8626   59.0194 C   0  0  0  0  0  0  0  0  0  0  0  0
  -46.3169   59.0477   59.7923 C   0  0  0  0  0  0  0  0  0  0  0  0
  -45.8862   57.6312   59.3422 C   0  0  0  0  0  0  0  0  0  0  0  0
  -46.4589   56.9732   58.0716 C   0  0  0  0  0  0  0  0  0  0  0  0
  -48.3678   56.0581   59.4671 C   0  0  0  0  0  0  0  0  0  0  0  0
  -47.2236   55.7166   58.5095 C   0  0  0  0  0  0  0  0  0  0  0  0
  -49.1676   59.2021   66.0378 C   0  0  0  0  0  0  0  0  0  0  0  0
  -48.1004   58.1291   65.7162 C   0  0  0  0  0  0  0  0  0  0  0  0
  -45.4952   59.2645   63.3332 C   0  0  0  0  0  0  0  0  0  0  0  0
  -44.4565   59.6475   64.1920 C   0  0  0  0  0  0  0  0  0  0  0  0
  -46.6935   58.7606   63.8530 C   0  0  0  0  0  0  0  0  0  0  0  0
  -44.6427   59.5203   65.5683 C   0  0  0  0  0  0  0  0  0  0  0  0
  -45.8413   59.0253   66.0794 C   0  0  0  0  0  0  0  0  0  0  0  0
  -46.8977   58.6629   65.2339 C   0  0  0  0  0  0  0  0  0  0  0  0
  -43.6869   59.8659   66.4652 O   0  0  0  0  0  0  0  0  0  0  0  0
  -45.9813   58.9259   67.4331 O   0  0  0  0  0  0  0  0  0  0  0  0
  -42.8650   60.2034   66.1674 H   0  0  0  0  0  0  0  0  0  0  0  0
  -45.2732   59.1689   67.9965 H   0  0  0  0  0  0  0  0  0  0  0  0
 12 13  1  0  0  0
  9 10  2  0  0  0
  9  8  1  0  0  0
  6  7  2  0  0  0
  6  8  1  0  0  0
 10 11  1  0  0  0
  7  5  1  0  0  0
 16 17  2  0  0  0
 16 18  1  0  0  0
 17 19  1  0  0  0
 18 21  2  0  0  0
 13 11  1  0  0  0
  5  4  1  0  0  0
  4  3  1  0  0  0
  3  2  1  0  0  0
  2  1  1  0  0  0
  1 14  1  0  0  0
 14 15  1  0  0  0
 15 21  1  0  0  0
 19 20  2  0  0  0
 19 22  1  0  0  0
 20 21  1  0  0  0
 20 23  1  0  0  0
 22 24  1  0  0  0
 23 25  1  0  0  0
M  END
> <minimizedAffinity>
-7.52704

> <CNNscore>
0.3414145410

> <CNNaffinity>
6.3398456573

> <CNN_VS>
2.1645154953

> <CNNaffinity_variance>
0.2188135833

$$$$
/media/chris/experiments/cd1a-new-docking/inputs/ligands/5j1a_ligand.pdb


 25 25  0  0  0  0  0  0  0  0999 V2000
  -46.0159   58.9751   60.0009 C   0  0  0  0  0  0  0  0  0  0  0  0
  -46.0446   57.9943   58.8192 C   0  0  0  0  0  0  0  0  0  0  0  0
  -46.8248   58.5889   57.6548 C   0  0  0  0  0  0  0  0  0  0  0  0
  -48.2409   58.0124   57.6454 C   0  0  0  0  0  0  0  0  0  0  0  0
  -49.1034   58.7171   58.6923 C   0  0  0  0  0  0  0  0  0  0  0  0
  -50.7646   57.5375   60.4025 C   0  0  0  0  0  0  0  0  0  0  0  0
  -50.3290   57.8403   58.9555 C   0  0  0  0  0  0  0  0  0  0  0  0
  -49.9360   57.9869   61.6158 C   0  0  0  0  0  0  0  0  0  0  0  0
  -50.6504   59.2002   62.2288 C   0  0  0  0  0  0  0  0  0  0  0  0
  -50.6456   59.4695   63.7527 C   0  0  0  0  0  0  0  0  0  0  0  0
  -49.8927   58.5535   64.7373 C   0  0  0  0  0  0  0  0  0  0  0  0
  -48.8147   59.9220   66.5795 C   0  0  0  0  0  0  0  0  0  0  0  0
  -50.0617   59.1502   66.1412 C   0  0  0  0  0  0  0  0  0  0  0  0
  -46.0477   58.2724   61.3829 C   0  0  0  0  0  0  0  0  0  0  0  0
  -45.0845   58.9102   62.4120 C   0  0  0  0  0  0  0  0  0  0  0  0
  -42.6630   56.4142   63.7009 C   0  0  0  0  0  0  0  0  0  0  0  0
  -43.2591   56.0198   64.9061 C   0  0  0  0  0  0  0  0  0  0  0  0
  -43.2814   57.3692   62.8851 C   0  0  0  0  0  0  0  0  0  0  0  0
  -44.4730   56.5990   65.2750 C   0  0  0  0  0  0  0  0  0  0  0  0
  -45.0793   57.5551   64.4619 C   0  0  0  0  0  0  0  0  0  0  0  0
  -44.4821   57.9777   63.2674 C   0  0  0  0  0  0  0  0  0  0  0  0
  -45.1150   56.2703   66.4228 O   0  0  0  0  0  0  0  0  0  0  0  0
  -46.2627   58.1000   64.8673 O   0  0  0  0  0  0  0  0  0  0  0  0
  -44.7447   55.6322   67.0006 H   0  0  0  0  0  0  0  0  0  0  0  0
  -46.6601   57.8156   65.6667 H   0  0  0  0  0  0  0  0  0  0  0  0
 12 13  1  0  0  0
  9 10  2  0  0  0
  9  8  1  0  0  0
  6  7  2  0  0  0
  6  8  1  0  0  0
 10 11  1  0  0  0
  7  5  1  0  0  0
 16 17  2  0  0  0
 16 18  1  0  0  0
 17 19  1  0  0  0
 18 21  2  0  0  0
 13 11  1  0  0  0
  5  4  1  0  0  0
  4  3  1  0  0  0
  3  2  1  0  0  0
  2  1  1  0  0  0
  1 14  1  0  0  0
 14 15  1  0  0  0
 15 21  1  0  0  0
 19 20  2  0  0  0
 19 22  1  0  0  0
 20 21  1  0  0  0
 20 23  1  0  0  0
 22 24  1  0  0  0
 23 25  1  0  0  0
M  END
> <minimizedAffinity>
-8.18992

> <CNNscore>
0.3386121392

> <CNNaffinity>
6.3657503128

> <CNN_VS>
2.1555204391

> <CNNaffinity_variance>
0.5258526802

$$$$
/media/chris/experiments/cd1a-new-docking/inputs/ligands/5j1a_ligand.pdb


 25 25  0  0  0  0  0  0  0  0999 V2000
  -47.1785   60.3825   66.2168 C   0  0  0  0  0  0  0  0  0  0  0  0
  -48.2291   59.3977   66.7511 C   0  0  0  0  0  0  0  0  0  0  0  0
  -49.5628   59.6114   66.0483 C   0  0  0  0  0  0  0  0  0  0  0  0
  -50.0568   58.2802   65.4811 C   0  0  0  0  0  0  0  0  0  0  0  0
  -50.0081   58.3080   63.9536 C   0  0  0  0  0  0  0  0  0  0  0  0
  -50.4432   60.1339   62.0688 C   0  0  0  0  0  0  0  0  0  0  0  0
  -50.7024   59.5887   63.4868 C   0  0  0  0  0  0  0  0  0  0  0  0
  -49.4059   59.5019   61.1279 C   0  0  0  0  0  0  0  0  0  0  0  0
  -48.8862   60.6181   60.2101 C   0  0  0  0  0  0  0  0  0  0  0  0
  -47.4426   60.6144   59.6528 C   0  0  0  0  0  0  0  0  0  0  0  0
  -46.4563   59.4704   59.9593 C   0  0  0  0  0  0  0  0  0  0  0  0
  -46.9328   59.1211   57.4937 C   0  0  0  0  0  0  0  0  0  0  0  0
  -46.5689   58.4487   58.8196 C   0  0  0  0  0  0  0  0  0  0  0  0
  -47.3115   60.6569   64.6963 C   0  0  0  0  0  0  0  0  0  0  0  0
  -46.2262   59.9467   63.8528 C   0  0  0  0  0  0  0  0  0  0  0  0
  -44.6835   62.6662   61.8580 C   0  0  0  0  0  0  0  0  0  0  0  0
  -43.3298   62.5526   62.2013 C   0  0  0  0  0  0  0  0  0  0  0  0
  -45.6291   61.7941   62.4104 C   0  0  0  0  0  0  0  0  0  0  0  0
  -42.9477   61.5598   63.1032 C   0  0  0  0  0  0  0  0  0  0  0  0
  -43.8955   60.6999   63.6556 C   0  0  0  0  0  0  0  0  0  0  0  0
  -45.2554   60.8186   63.3415 C   0  0  0  0  0  0  0  0  0  0  0  0
  -41.6589   61.3824   63.4846 O   0  0  0  0  0  0  0  0  0  0  0  0
  -43.4763   59.7488   64.5396 O   0  0  0  0  0  0  0  0  0  0  0  0
  -40.9875   61.9372   63.1391 H   0  0  0  0  0  0  0  0  0  0  0  0
  -42.5661   59.6714   64.7481 H   0  0  0  0  0  0  0  0  0  0  0  0
 12 13  1  0  0  0
  9 10  2  0  0  0
  9  8  1  0  0  0
  6  7  2  0  0  0
  6  8  1  0  0  0
 10 11  1  0  0  0
  7  5  1  0  0  0
 16 17  2  0  0  0
 16 18  1  0  0  0
 17 19  1  0  0  0
 18 21  2  0  0  0
 13 11  1  0  0  0
  5  4  1  0  0  0
  4  3  1  0  0  0
  3  2  1  0  0  0
  2  1  1  0  0  0
  1 14  1  0  0  0
 14 15  1  0  0  0
 15 21  1  0  0  0
 19 20  2  0  0  0
 19 22  1  0  0  0
 20 21  1  0  0  0
 20 23  1  0  0  0
 22 24  1  0  0  0
 23 25  1  0  0  0
M  END
> <minimizedAffinity>
-7.51886

> <CNNscore>
0.3231592178

> <CNNaffinity>
6.0393114090

> <CNN_VS>
1.9516592026

> <CNNaffinity_variance>
0.2241824865

$$$$
/media/chris/experiments/cd1a-new-docking/inputs/ligands/5j1a_ligand.pdb


 25 25  0  0  0  0  0  0  0  0999 V2000
  -48.6605   58.4840   66.3183 C   0  0  0  0  0  0  0  0  0  0  0  0
  -50.0415   58.4446   65.6472 C   0  0  0  0  0  0  0  0  0  0  0  0
  -49.8965   58.2307   64.1468 C   0  0  0  0  0  0  0  0  0  0  0  0
  -50.5074   59.4190   63.4033 C   0  0  0  0  0  0  0  0  0  0  0  0
  -50.3631   59.2264   61.8938 C   0  0  0  0  0  0  0  0  0  0  0  0
  -50.1468   57.2089   60.1737 C   0  0  0  0  0  0  0  0  0  0  0  0
  -50.3272   57.7226   61.6156 C   0  0  0  0  0  0  0  0  0  0  0  0
  -50.1215   58.1581   58.9658 C   0  0  0  0  0  0  0  0  0  0  0  0
  -49.1993   57.5273   57.9123 C   0  0  0  0  0  0  0  0  0  0  0  0
  -47.8172   58.1315   57.5668 C   0  0  0  0  0  0  0  0  0  0  0  0
  -47.2736   59.3810   58.2871 C   0  0  0  0  0  0  0  0  0  0  0  0
  -45.7356   57.5703   59.1729 C   0  0  0  0  0  0  0  0  0  0  0  0
  -46.4358   58.8966   59.4784 C   0  0  0  0  0  0  0  0  0  0  0  0
  -48.1427   59.9234   66.5734 C   0  0  0  0  0  0  0  0  0  0  0  0
  -47.1910   60.4328   65.4651 C   0  0  0  0  0  0  0  0  0  0  0  0
  -43.9663   58.7413   66.1691 C   0  0  0  0  0  0  0  0  0  0  0  0
  -43.7050   58.0883   64.9573 C   0  0  0  0  0  0  0  0  0  0  0  0
  -45.1225   59.5162   66.3201 C   0  0  0  0  0  0  0  0  0  0  0  0
  -44.6185   58.2231   63.9121 C   0  0  0  0  0  0  0  0  0  0  0  0
  -45.7716   58.9896   64.0719 C   0  0  0  0  0  0  0  0  0  0  0  0
  -46.0586   59.6268   65.2858 C   0  0  0  0  0  0  0  0  0  0  0  0
  -44.4378   57.6260   62.7085 O   0  0  0  0  0  0  0  0  0  0  0  0
  -46.6405   59.0865   63.0243 O   0  0  0  0  0  0  0  0  0  0  0  0
  -43.6770   57.1008   62.5555 H   0  0  0  0  0  0  0  0  0  0  0  0
  -46.4462   58.6594   62.2133 H   0  0  0  0  0  0  0  0  0  0  0  0
 12 13  1  0  0  0
  9 10  2  0  0  0
  9  8  1  0  0  0
  6  7  2  0  0  0
  6  8  1  0  0  0
 10 11  1  0  0  0
  7  5  1  0  0  0
 16 17  2  0  0  0
 16 18  1  0  0  0
 17 19  1  0  0  0
 18 21  2  0  0  0
 13 11  1  0  0  0
  5  4  1  0  0  0
  4  3  1  0  0  0
  3  2  1  0  0  0
  2  1  1  0  0  0
  1 14  1  0  0  0
 14 15  1  0  0  0
 15 21  1  0  0  0
 19 20  2  0  0  0
 19 22  1  0  0  0
 20 21  1  0  0  0
 20 23  1  0  0  0
 22 24  1  0  0  0
 23 25  1  0  0  0
M  END
> <minimizedAffinity>
-7.82115

> <CNNscore>
0.3046110868

> <CNNaffinity>
6.3099179268

> <CNN_VS>
1.9220709801

> <CNNaffinity_variance>
0.1693507284

$$$$
/media/chris/experiments/cd1a-new-docking/inputs/ligands/5j1a_ligand.pdb


 25 25  0  0  0  0  0  0  0  0999 V2000
  -46.3858   60.3438   60.6957 C   0  0  0  0  0  0  0  0  0  0  0  0
  -46.9747   60.6592   62.0787 C   0  0  0  0  0  0  0  0  0  0  0  0
  -48.4103   60.1604   62.1705 C   0  0  0  0  0  0  0  0  0  0  0  0
  -48.4108   58.6885   62.5847 C   0  0  0  0  0  0  0  0  0  0  0  0
  -49.8147   58.2626   63.0140 C   0  0  0  0  0  0  0  0  0  0  0  0
  -50.9645   60.0808   64.5786 C   0  0  0  0  0  0  0  0  0  0  0  0
  -50.6592   59.5282   63.1726 C   0  0  0  0  0  0  0  0  0  0  0  0
  -50.5511   59.3348   65.8567 C   0  0  0  0  0  0  0  0  0  0  0  0
  -49.1960   59.9070   66.2976 C   0  0  0  0  0  0  0  0  0  0  0  0
  -47.9418   59.0141   66.4536 C   0  0  0  0  0  0  0  0  0  0  0  0
  -47.9745   57.5053   66.1403 C   0  0  0  0  0  0  0  0  0  0  0  0
  -45.6321   56.6001   65.7899 C   0  0  0  0  0  0  0  0  0  0  0  0
  -46.7451   56.8711   66.8051 C   0  0  0  0  0  0  0  0  0  0  0  0
  -47.2737   60.8361   59.5235 C   0  0  0  0  0  0  0  0  0  0  0  0
  -47.3489   59.8281   58.3522 C   0  0  0  0  0  0  0  0  0  0  0  0
  -50.0207   57.4883   59.4210 C   0  0  0  0  0  0  0  0  0  0  0  0
  -49.3429   56.2625   59.4558 C   0  0  0  0  0  0  0  0  0  0  0  0
  -49.3459   58.6598   59.0571 C   0  0  0  0  0  0  0  0  0  0  0  0
  -47.9899   56.2343   59.1182 C   0  0  0  0  0  0  0  0  0  0  0  0
  -47.3261   57.4031   58.7492 C   0  0  0  0  0  0  0  0  0  0  0  0
  -47.9972   58.6310   58.6849 C   0  0  0  0  0  0  0  0  0  0  0  0
  -47.2626   55.0904   59.1294 O   0  0  0  0  0  0  0  0  0  0  0  0
  -46.0043   57.3260   58.4196 O   0  0  0  0  0  0  0  0  0  0  0  0
  -47.6670   54.2804   59.3709 H   0  0  0  0  0  0  0  0  0  0  0  0
  -45.5577   56.5035   58.4634 H   0  0  0  0  0  0  0  0  0  0  0  0
 12 13  1  0  0  0
  9 10  2  0  0  0
  9  8  1  0  0  0
  6  7  2  0  0  0
  6  8  1  0  0  0
 10 11  1  0  0  0
  7  5  1  0  0  0
 16 17  2  0  0  0
 16 18  1  0  0  0
 17 19  1  0  0  0
 18 21  2  0  0  0
 13 11  1  0  0  0
  5  4  1  0  0  0
  4  3  1  0  0  0
  3  2  1  0  0  0
  2  1  1  0  0  0
  1 14  1  0  0  0
 14 15  1  0  0  0
 15 21  1  0  0  0
 19 20  2  0  0  0
 19 22  1  0  0  0
 20 21  1  0  0  0
 20 23  1  0  0  0
 22 24  1  0  0  0
 23 25  1  0  0  0
M  END
> <minimizedAffinity>
-7.71532

> <CNNscore>
0.3033419847

> <CNNaffinity>
6.5500593185

> <CNN_VS>
1.9869079590

> <CNNaffinity_variance>
0.2291512042

$$$$
/media/chris/experiments/cd1a-new-docking/inputs/ligands/5j1a_ligand.pdb


 25 25  0  0  0  0  0  0  0  0999 V2000
  -49.8640   57.7699   61.7578 C   0  0  0  0  0  0  0  0  0  0  0  0
  -50.2165   58.2700   63.1666 C   0  0  0  0  0  0  0  0  0  0  0  0
  -50.7198   59.7058   63.1096 C   0  0  0  0  0  0  0  0  0  0  0  0
  -50.8324   60.2611   64.5298 C   0  0  0  0  0  0  0  0  0  0  0  0
  -50.4124   59.1988   65.5455 C   0  0  0  0  0  0  0  0  0  0  0  0
  -47.8545   59.1291   66.2723 C   0  0  0  0  0  0  0  0  0  0  0  0
  -49.2537   59.7685   66.3659 C   0  0  0  0  0  0  0  0  0  0  0  0
  -47.5952   57.8459   65.4681 C   0  0  0  0  0  0  0  0  0  0  0  0
  -46.1411   57.9039   64.9778 C   0  0  0  0  0  0  0  0  0  0  0  0
  -45.7373   58.6821   63.7026 C   0  0  0  0  0  0  0  0  0  0  0  0
  -46.7677   59.4728   62.8728 C   0  0  0  0  0  0  0  0  0  0  0  0
  -45.5411   58.1451   61.0948 C   0  0  0  0  0  0  0  0  0  0  0  0
  -46.3078   59.4320   61.4091 C   0  0  0  0  0  0  0  0  0  0  0  0
  -49.8439   58.8974   60.6933 C   0  0  0  0  0  0  0  0  0  0  0  0
  -49.9414   58.3668   59.2433 C   0  0  0  0  0  0  0  0  0  0  0  0
  -46.6677   58.7843   57.5509 C   0  0  0  0  0  0  0  0  0  0  0  0
  -46.2191   57.4611   57.4456 C   0  0  0  0  0  0  0  0  0  0  0  0
  -47.9033   59.0672   58.1453 C   0  0  0  0  0  0  0  0  0  0  0  0
  -47.0239   56.4381   57.9465 C   0  0  0  0  0  0  0  0  0  0  0  0
  -48.2494   56.7275   58.5442 C   0  0  0  0  0  0  0  0  0  0  0  0
  -48.6987   58.0473   58.6796 C   0  0  0  0  0  0  0  0  0  0  0  0
  -46.6635   55.1329   57.8813 O   0  0  0  0  0  0  0  0  0  0  0  0
  -48.9994   55.6949   59.0270 O   0  0  0  0  0  0  0  0  0  0  0  0
  -45.8481   54.8912   57.4881 H   0  0  0  0  0  0  0  0  0  0  0  0
  -48.6967   54.8129   58.9352 H   0  0  0  0  0  0  0  0  0  0  0  0
 12 13  1  0  0  0
  9 10  2  0  0  0
  9  8  1  0  0  0
  6  7  2  0  0  0
  6  8  1  0  0  0
 10 11  1  0  0  0
  7  5  1  0  0  0
 16 17  2  0  0  0
 16 18  1  0  0  0
 17 19  1  0  0  0
 18 21  2  0  0  0
 13 11  1  0  0  0
  5  4  1  0  0  0
  4  3  1  0  0  0
  3  2  1  0  0  0
  2  1  1  0  0  0
  1 14  1  0  0  0
 14 15  1  0  0  0
 15 21  1  0  0  0
 19 20  2  0  0  0
 19 22  1  0  0  0
 20 21  1  0  0  0
 20 23  1  0  0  0
 22 24  1  0  0  0
 23 25  1  0  0  0
M  END
> <minimizedAffinity>
-7.71037

> <CNNscore>
0.2898119390

> <CNNaffinity>
6.5848488808

> <CNN_VS>
1.9083678722

> <CNNaffinity_variance>
0.1687134802

$$$$
