/media/chris/experiments/cd1a-new-docking/inputs/ligands/5j1a_ligand.pdb


 25 25  0  0  0  0  0  0  0  0999 V2000
  -45.9290   57.5235   59.0176 C   0  0  0  0  0  0  0  0  0  0  0  0
  -46.3962   57.7948   57.5798 C   0  0  0  0  0  0  0  0  0  0  0  0
  -47.6894   58.5984   57.5847 C   0  0  0  0  0  0  0  0  0  0  0  0
  -48.8731   57.6541   57.7974 C   0  0  0  0  0  0  0  0  0  0  0  0
  -49.8317   58.2366   58.8357 C   0  0  0  0  0  0  0  0  0  0  0  0
  -50.0595   57.7448   61.4400 C   0  0  0  0  0  0  0  0  0  0  0  0
  -49.9339   57.2380   59.9899 C   0  0  0  0  0  0  0  0  0  0  0  0
  -49.9636   59.2367   61.7948 C   0  0  0  0  0  0  0  0  0  0  0  0
  -51.1776   59.5732   62.6729 C   0  0  0  0  0  0  0  0  0  0  0  0
  -51.0232   60.0301   64.1433 C   0  0  0  0  0  0  0  0  0  0  0  0
  -49.6392   60.2075   64.7979 C   0  0  0  0  0  0  0  0  0  0  0  0
  -50.2344   58.0870   66.0538 C   0  0  0  0  0  0  0  0  0  0  0  0
  -49.1609   58.8195   65.2452 C   0  0  0  0  0  0  0  0  0  0  0  0
  -46.2436   58.6857   59.9949 C   0  0  0  0  0  0  0  0  0  0  0  0
  -45.4317   58.6114   61.3098 C   0  0  0  0  0  0  0  0  0  0  0  0
  -45.1052   62.2819   61.7292 C   0  0  0  0  0  0  0  0  0  0  0  0
  -43.9145   62.3907   62.4598 C   0  0  0  0  0  0  0  0  0  0  0  0
  -45.5922   61.0244   61.3533 C   0  0  0  0  0  0  0  0  0  0  0  0
  -43.2309   61.2252   62.8057 C   0  0  0  0  0  0  0  0  0  0  0  0
  -43.7256   59.9759   62.4350 C   0  0  0  0  0  0  0  0  0  0  0  0
  -44.9278   59.8508   61.7271 C   0  0  0  0  0  0  0  0  0  0  0  0
  -42.0720   61.2449   63.5087 O   0  0  0  0  0  0  0  0  0  0  0  0
  -43.0271   58.8628   62.8023 O   0  0  0  0  0  0  0  0  0  0  0  0
  -41.7020   62.0620   63.7793 H   0  0  0  0  0  0  0  0  0  0  0  0
  -42.2231   58.9492   63.2758 H   0  0  0  0  0  0  0  0  0  0  0  0
 12 13  1  0  0  0
  9 10  2  0  0  0
  9  8  1  0  0  0
  6  7  2  0  0  0
  6  8  1  0  0  0
 10 11  1  0  0  0
  7  5  1  0  0  0
 16 17  2  0  0  0
 16 18  1  0  0  0
 17 19  1  0  0  0
 18 21  2  0  0  0
 13 11  1  0  0  0
  5  4  1  0  0  0
  4  3  1  0  0  0
  3  2  1  0  0  0
  2  1  1  0  0  0
  1 14  1  0  0  0
 14 15  1  0  0  0
 15 21  1  0  0  0
 19 20  2  0  0  0
 19 22  1  0  0  0
 20 21  1  0  0  0
 20 23  1  0  0  0
 22 24  1  0  0  0
 23 25  1  0  0  0
M  END
> <minimizedAffinity>
-8.24807

> <CNNscore>
0.6261078119

> <CNNaffinity>
6.4638719559

> <CNN_VS>
4.0470805168

> <CNNaffinity_variance>
0.1491176635

$$$$
/media/chris/experiments/cd1a-new-docking/inputs/ligands/5j1a_ligand.pdb


 25 25  0  0  0  0  0  0  0  0999 V2000
  -47.4313   55.8319   58.9721 C   0  0  0  0  0  0  0  0  0  0  0  0
  -48.7538   56.0553   59.7204 C   0  0  0  0  0  0  0  0  0  0  0  0
  -49.5604   57.1615   59.0541 C   0  0  0  0  0  0  0  0  0  0  0  0
  -50.5723   57.7240   60.0528 C   0  0  0  0  0  0  0  0  0  0  0  0
  -49.8852   58.0290   61.3837 C   0  0  0  0  0  0  0  0  0  0  0  0
  -50.5316   59.3895   63.5763 C   0  0  0  0  0  0  0  0  0  0  0  0
  -50.6524   59.1690   62.0557 C   0  0  0  0  0  0  0  0  0  0  0  0
  -49.7544   58.4222   64.4824 C   0  0  0  0  0  0  0  0  0  0  0  0
  -49.9305   58.9130   65.9267 C   0  0  0  0  0  0  0  0  0  0  0  0
  -48.8916   59.8334   66.6112 C   0  0  0  0  0  0  0  0  0  0  0  0
  -47.6391   60.3380   65.8684 C   0  0  0  0  0  0  0  0  0  0  0  0
  -46.2970   58.1872   65.8344 C   0  0  0  0  0  0  0  0  0  0  0  0
  -46.4304   59.5858   66.4417 C   0  0  0  0  0  0  0  0  0  0  0  0
  -47.1408   56.9158   57.9018 C   0  0  0  0  0  0  0  0  0  0  0  0
  -46.0371   57.9123   58.3291 C   0  0  0  0  0  0  0  0  0  0  0  0
  -47.7277   60.9973   59.5038 C   0  0  0  0  0  0  0  0  0  0  0  0
  -47.3756   61.0288   60.8596 C   0  0  0  0  0  0  0  0  0  0  0  0
  -47.2739   59.9612   58.6788 C   0  0  0  0  0  0  0  0  0  0  0  0
  -46.5709   60.0090   61.3675 C   0  0  0  0  0  0  0  0  0  0  0  0
  -46.1291   58.9761   60.5423 C   0  0  0  0  0  0  0  0  0  0  0  0
  -46.4945   58.9180   59.1914 C   0  0  0  0  0  0  0  0  0  0  0  0
  -46.1841   59.9681   62.6661 O   0  0  0  0  0  0  0  0  0  0  0  0
  -45.3501   57.9959   61.0848 O   0  0  0  0  0  0  0  0  0  0  0  0
  -46.4573   60.6413   63.2577 H   0  0  0  0  0  0  0  0  0  0  0  0
  -45.1071   58.0371   61.9888 H   0  0  0  0  0  0  0  0  0  0  0  0
 12 13  1  0  0  0
  9 10  2  0  0  0
  9  8  1  0  0  0
  6  7  2  0  0  0
  6  8  1  0  0  0
 10 11  1  0  0  0
  7  5  1  0  0  0
 16 17  2  0  0  0
 16 18  1  0  0  0
 17 19  1  0  0  0
 18 21  2  0  0  0
 13 11  1  0  0  0
  5  4  1  0  0  0
  4  3  1  0  0  0
  3  2  1  0  0  0
  2  1  1  0  0  0
  1 14  1  0  0  0
 14 15  1  0  0  0
 15 21  1  0  0  0
 19 20  2  0  0  0
 19 22  1  0  0  0
 20 21  1  0  0  0
 20 23  1  0  0  0
 22 24  1  0  0  0
 23 25  1  0  0  0
M  END
> <minimizedAffinity>
-7.99002

> <CNNscore>
0.6098601222

> <CNNaffinity>
6.6372237206

> <CNN_VS>
4.0477781296

> <CNNaffinity_variance>
0.2227340639

$$$$
/media/chris/experiments/cd1a-new-docking/inputs/ligands/5j1a_ligand.pdb


 25 25  0  0  0  0  0  0  0  0999 V2000
  -48.4295   59.5136   62.0228 C   0  0  0  0  0  0  0  0  0  0  0  0
  -49.2378   59.7219   63.3121 C   0  0  0  0  0  0  0  0  0  0  0  0
  -49.6557   58.3807   63.8991 C   0  0  0  0  0  0  0  0  0  0  0  0
  -49.8893   58.5351   65.4023 C   0  0  0  0  0  0  0  0  0  0  0  0
  -48.6087   58.2092   66.1706 C   0  0  0  0  0  0  0  0  0  0  0  0
  -46.7011   56.3562   66.1108 C   0  0  0  0  0  0  0  0  0  0  0  0
  -48.0780   56.8725   65.6495 C   0  0  0  0  0  0  0  0  0  0  0  0
  -45.7675   57.1980   66.9943 C   0  0  0  0  0  0  0  0  0  0  0  0
  -44.3366   56.9752   66.4835 C   0  0  0  0  0  0  0  0  0  0  0  0
  -43.4122   58.1544   66.0967 C   0  0  0  0  0  0  0  0  0  0  0  0
  -43.8646   59.6211   66.2368 C   0  0  0  0  0  0  0  0  0  0  0  0
  -45.9279   60.3603   64.9623 C   0  0  0  0  0  0  0  0  0  0  0  0
  -44.4295   60.0596   64.8788 C   0  0  0  0  0  0  0  0  0  0  0  0
  -49.0477   60.2215   60.7894 C   0  0  0  0  0  0  0  0  0  0  0  0
  -49.5781   59.2336   59.7234 C   0  0  0  0  0  0  0  0  0  0  0  0
  -46.5765   58.5947   57.6408 C   0  0  0  0  0  0  0  0  0  0  0  0
  -46.5402   57.1947   57.5971 C   0  0  0  0  0  0  0  0  0  0  0  0
  -47.5902   59.2545   58.3457 C   0  0  0  0  0  0  0  0  0  0  0  0
  -47.5282   56.4767   58.2706 C   0  0  0  0  0  0  0  0  0  0  0  0
  -48.5301   57.1399   58.9773 C   0  0  0  0  0  0  0  0  0  0  0  0
  -48.5639   58.5383   59.0510 C   0  0  0  0  0  0  0  0  0  0  0  0
  -47.5652   55.1216   58.2751 O   0  0  0  0  0  0  0  0  0  0  0  0
  -49.4712   56.3960   59.6275 O   0  0  0  0  0  0  0  0  0  0  0  0
  -46.9120   54.6336   57.8137 H   0  0  0  0  0  0  0  0  0  0  0  0
  -49.4464   55.4607   59.5766 H   0  0  0  0  0  0  0  0  0  0  0  0
 12 13  1  0  0  0
  9 10  2  0  0  0
  9  8  1  0  0  0
  6  7  2  0  0  0
  6  8  1  0  0  0
 10 11  1  0  0  0
  7  5  1  0  0  0
 16 17  2  0  0  0
 16 18  1  0  0  0
 17 19  1  0  0  0
 18 21  2  0  0  0
 13 11  1  0  0  0
  5  4  1  0  0  0
  4  3  1  0  0  0
  3  2  1  0  0  0
  2  1  1  0  0  0
  1 14  1  0  0  0
 14 15  1  0  0  0
 15 21  1  0  0  0
 19 20  2  0  0  0
 19 22  1  0  0  0
 20 21  1  0  0  0
 20 23  1  0  0  0
 22 24  1  0  0  0
 23 25  1  0  0  0
M  END
> <minimizedAffinity>
-7.76698

> <CNNscore>
0.4887551367

> <CNNaffinity>
6.7872581482

> <CNN_VS>
3.3173072338

> <CNNaffinity_variance>
0.1958845556

$$$$
/media/chris/experiments/cd1a-new-docking/inputs/ligands/5j1a_ligand.pdb


 25 25  0  0  0  0  0  0  0  0999 V2000
  -46.8810   61.7031   61.5287 C   0  0  0  0  0  0  0  0  0  0  0  0
  -45.3748   61.9862   61.6306 C   0  0  0  0  0  0  0  0  0  0  0  0
  -44.8999   61.8214   63.0677 C   0  0  0  0  0  0  0  0  0  0  0  0
  -46.0045   61.1632   63.8951 C   0  0  0  0  0  0  0  0  0  0  0  0
  -45.5201   59.8237   64.4497 C   0  0  0  0  0  0  0  0  0  0  0  0
  -46.4640   58.6190   66.6254 C   0  0  0  0  0  0  0  0  0  0  0  0
  -45.7717   59.8238   65.9585 C   0  0  0  0  0  0  0  0  0  0  0  0
  -47.0315   57.4482   65.8082 C   0  0  0  0  0  0  0  0  0  0  0  0
  -48.5284   57.3494   66.1364 C   0  0  0  0  0  0  0  0  0  0  0  0
  -49.6103   57.9701   65.2203 C   0  0  0  0  0  0  0  0  0  0  0  0
  -49.2471   58.6916   63.9078 C   0  0  0  0  0  0  0  0  0  0  0  0
  -51.1734   59.8533   62.7381 C   0  0  0  0  0  0  0  0  0  0  0  0
  -50.1050   59.9617   63.8288 C   0  0  0  0  0  0  0  0  0  0  0  0
  -47.3186   61.2045   60.1269 C   0  0  0  0  0  0  0  0  0  0  0  0
  -48.2344   59.9589   60.1829 C   0  0  0  0  0  0  0  0  0  0  0  0
  -46.1367   57.9613   57.8667 C   0  0  0  0  0  0  0  0  0  0  0  0
  -46.6892   56.6805   57.9984 C   0  0  0  0  0  0  0  0  0  0  0  0
  -46.6615   59.0364   58.5938 C   0  0  0  0  0  0  0  0  0  0  0  0
  -47.7650   56.5001   58.8677 C   0  0  0  0  0  0  0  0  0  0  0  0
  -48.2776   57.5734   59.5946 C   0  0  0  0  0  0  0  0  0  0  0  0
  -47.7187   58.8537   59.4924 C   0  0  0  0  0  0  0  0  0  0  0  0
  -48.3571   55.2943   59.0495 O   0  0  0  0  0  0  0  0  0  0  0  0
  -49.3256   57.3480   60.4387 O   0  0  0  0  0  0  0  0  0  0  0  0
  -48.0460   54.5444   58.5820 H   0  0  0  0  0  0  0  0  0  0  0  0
  -49.6977   56.4906   60.5052 H   0  0  0  0  0  0  0  0  0  0  0  0
 12 13  1  0  0  0
  9 10  2  0  0  0
  9  8  1  0  0  0
  6  7  2  0  0  0
  6  8  1  0  0  0
 10 11  1  0  0  0
  7  5  1  0  0  0
 16 17  2  0  0  0
 16 18  1  0  0  0
 17 19  1  0  0  0
 18 21  2  0  0  0
 13 11  1  0  0  0
  5  4  1  0  0  0
  4  3  1  0  0  0
  3  2  1  0  0  0
  2  1  1  0  0  0
  1 14  1  0  0  0
 14 15  1  0  0  0
 15 21  1  0  0  0
 19 20  2  0  0  0
 19 22  1  0  0  0
 20 21  1  0  0  0
 20 23  1  0  0  0
 22 24  1  0  0  0
 23 25  1  0  0  0
M  END
> <minimizedAffinity>
-7.54742

> <CNNscore>
0.4544476569

> <CNNaffinity>
6.6819143295

> <CNN_VS>
3.0365803242

> <CNNaffinity_variance>
0.2946635187

$$$$
/media/chris/experiments/cd1a-new-docking/inputs/ligands/5j1a_ligand.pdb


 25 25  0  0  0  0  0  0  0  0999 V2000
  -45.8951   58.9796   61.7179 C   0  0  0  0  0  0  0  0  0  0  0  0
  -46.1348   59.0382   60.2019 C   0  0  0  0  0  0  0  0  0  0  0  0
  -46.0523   57.6433   59.5973 C   0  0  0  0  0  0  0  0  0  0  0  0
  -45.9305   57.7553   58.0772 C   0  0  0  0  0  0  0  0  0  0  0  0
  -47.1123   58.5419   57.5105 C   0  0  0  0  0  0  0  0  0  0  0  0
  -49.5346   57.5203   57.9166 C   0  0  0  0  0  0  0  0  0  0  0  0
  -48.2053   57.5392   57.1368 C   0  0  0  0  0  0  0  0  0  0  0  0
  -49.7677   58.4004   59.1542 C   0  0  0  0  0  0  0  0  0  0  0  0
  -50.4313   57.5169   60.2207 C   0  0  0  0  0  0  0  0  0  0  0  0
  -50.7088   58.0315   61.6535 C   0  0  0  0  0  0  0  0  0  0  0  0
  -50.3670   59.4726   62.0796 C   0  0  0  0  0  0  0  0  0  0  0  0
  -50.2660   60.1874   64.5101 C   0  0  0  0  0  0  0  0  0  0  0  0
  -51.1749   59.7810   63.3476 C   0  0  0  0  0  0  0  0  0  0  0  0
  -44.5730   58.2666   62.1033 C   0  0  0  0  0  0  0  0  0  0  0  0
  -43.4315   59.2500   62.4544 C   0  0  0  0  0  0  0  0  0  0  0  0
  -42.8259   57.8052   65.8160 C   0  0  0  0  0  0  0  0  0  0  0  0
  -42.1494   58.8454   66.4669 C   0  0  0  0  0  0  0  0  0  0  0  0
  -43.2466   57.9559   64.4893 C   0  0  0  0  0  0  0  0  0  0  0  0
  -41.9024   60.0262   65.7669 C   0  0  0  0  0  0  0  0  0  0  0  0
  -42.3171   60.1666   64.4435 C   0  0  0  0  0  0  0  0  0  0  0  0
  -42.9712   59.1257   63.7723 C   0  0  0  0  0  0  0  0  0  0  0  0
  -41.2568   61.0795   66.3250 O   0  0  0  0  0  0  0  0  0  0  0  0
  -42.0466   61.3369   63.7961 O   0  0  0  0  0  0  0  0  0  0  0  0
  -40.9597   61.0302   67.2122 H   0  0  0  0  0  0  0  0  0  0  0  0
  -41.6089   62.0317   64.2473 H   0  0  0  0  0  0  0  0  0  0  0  0
 12 13  1  0  0  0
  9 10  2  0  0  0
  9  8  1  0  0  0
  6  7  2  0  0  0
  6  8  1  0  0  0
 10 11  1  0  0  0
  7  5  1  0  0  0
 16 17  2  0  0  0
 16 18  1  0  0  0
 17 19  1  0  0  0
 18 21  2  0  0  0
 13 11  1  0  0  0
  5  4  1  0  0  0
  4  3  1  0  0  0
  3  2  1  0  0  0
  2  1  1  0  0  0
  1 14  1  0  0  0
 14 15  1  0  0  0
 15 21  1  0  0  0
 19 20  2  0  0  0
 19 22  1  0  0  0
 20 21  1  0  0  0
 20 23  1  0  0  0
 22 24  1  0  0  0
 23 25  1  0  0  0
M  END
> <minimizedAffinity>
-8.08128

> <CNNscore>
0.4380262494

> <CNNaffinity>
6.2172784805

> <CNN_VS>
2.7233312130

> <CNNaffinity_variance>
0.2328324616

$$$$
/media/chris/experiments/cd1a-new-docking/inputs/ligands/5j1a_ligand.pdb


 25 25  0  0  0  0  0  0  0  0999 V2000
  -49.3339   58.6348   63.5527 C   0  0  0  0  0  0  0  0  0  0  0  0
  -49.8513   59.5479   62.4313 C   0  0  0  0  0  0  0  0  0  0  0  0
  -48.6895   60.0923   61.6116 C   0  0  0  0  0  0  0  0  0  0  0  0
  -47.4058   59.3583   62.0006 C   0  0  0  0  0  0  0  0  0  0  0  0
  -46.4626   59.2748   60.8006 C   0  0  0  0  0  0  0  0  0  0  0  0
  -47.0705   59.5292   58.2235 C   0  0  0  0  0  0  0  0  0  0  0  0
  -47.0828   60.0849   59.6610 C   0  0  0  0  0  0  0  0  0  0  0  0
  -46.3419   58.2269   57.8577 C   0  0  0  0  0  0  0  0  0  0  0  0
  -47.3550   57.3283   57.1335 C   0  0  0  0  0  0  0  0  0  0  0  0
  -48.2419   56.3147   57.8955 C   0  0  0  0  0  0  0  0  0  0  0  0
  -48.1833   56.1760   59.4293 C   0  0  0  0  0  0  0  0  0  0  0  0
  -50.1329   57.7722   59.1476 C   0  0  0  0  0  0  0  0  0  0  0  0
  -49.5375   56.6376   59.9847 C   0  0  0  0  0  0  0  0  0  0  0  0
  -50.3515   58.4432   64.7071 C   0  0  0  0  0  0  0  0  0  0  0  0
  -49.7214   58.6199   66.1090 C   0  0  0  0  0  0  0  0  0  0  0  0
  -46.8287   56.2988   66.1039 C   0  0  0  0  0  0  0  0  0  0  0  0
  -45.7658   57.1512   66.4308 C   0  0  0  0  0  0  0  0  0  0  0  0
  -48.1323   56.7995   66.0047 C   0  0  0  0  0  0  0  0  0  0  0  0
  -46.0328   58.5025   66.6503 C   0  0  0  0  0  0  0  0  0  0  0  0
  -47.3319   58.9959   66.5420 C   0  0  0  0  0  0  0  0  0  0  0  0
  -48.3999   58.1605   66.1906 C   0  0  0  0  0  0  0  0  0  0  0  0
  -45.0613   59.3913   66.9728 O   0  0  0  0  0  0  0  0  0  0  0  0
  -47.5443   60.3263   66.7578 O   0  0  0  0  0  0  0  0  0  0  0  0
  -44.1732   59.1049   67.0564 H   0  0  0  0  0  0  0  0  0  0  0  0
  -46.8282   60.8831   66.9928 H   0  0  0  0  0  0  0  0  0  0  0  0
 12 13  1  0  0  0
  9 10  2  0  0  0
  9  8  1  0  0  0
  6  7  2  0  0  0
  6  8  1  0  0  0
 10 11  1  0  0  0
  7  5  1  0  0  0
 16 17  2  0  0  0
 16 18  1  0  0  0
 17 19  1  0  0  0
 18 21  2  0  0  0
 13 11  1  0  0  0
  5  4  1  0  0  0
  4  3  1  0  0  0
  3  2  1  0  0  0
  2  1  1  0  0  0
  1 14  1  0  0  0
 14 15  1  0  0  0
 15 21  1  0  0  0
 19 20  2  0  0  0
 19 22  1  0  0  0
 20 21  1  0  0  0
 20 23  1  0  0  0
 22 24  1  0  0  0
 23 25  1  0  0  0
M  END
> <minimizedAffinity>
-7.68061

> <CNNscore>
0.4331541061

> <CNNaffinity>
6.3550229073

> <CNN_VS>
2.7527043819

> <CNNaffinity_variance>
0.3020007312

$$$$
/media/chris/experiments/cd1a-new-docking/inputs/ligands/5j1a_ligand.pdb


 25 25  0  0  0  0  0  0  0  0999 V2000
  -48.1661   60.2840   65.4664 C   0  0  0  0  0  0  0  0  0  0  0  0
  -49.1590   59.3203   66.1331 C   0  0  0  0  0  0  0  0  0  0  0  0
  -50.3275   59.0330   65.2003 C   0  0  0  0  0  0  0  0  0  0  0  0
  -50.3475   60.0704   64.0773 C   0  0  0  0  0  0  0  0  0  0  0  0
  -50.9633   59.4680   62.8146 C   0  0  0  0  0  0  0  0  0  0  0  0
  -49.7857   57.7199   61.1918 C   0  0  0  0  0  0  0  0  0  0  0  0
  -50.3189   58.0995   62.5871 C   0  0  0  0  0  0  0  0  0  0  0  0
  -49.9851   58.6261   59.9672 C   0  0  0  0  0  0  0  0  0  0  0  0
  -49.8403   57.7419   58.7201 C   0  0  0  0  0  0  0  0  0  0  0  0
  -48.6209   57.8539   57.7739 C   0  0  0  0  0  0  0  0  0  0  0  0
  -47.4653   58.8354   58.0507 C   0  0  0  0  0  0  0  0  0  0  0  0
  -45.7444   57.7794   59.5843 C   0  0  0  0  0  0  0  0  0  0  0  0
  -46.1727   58.0120   58.1334 C   0  0  0  0  0  0  0  0  0  0  0  0
  -46.6828   59.9022   65.7091 C   0  0  0  0  0  0  0  0  0  0  0  0
  -45.9879   59.3311   64.4503 C   0  0  0  0  0  0  0  0  0  0  0  0
  -47.3257   60.7471   61.2942 C   0  0  0  0  0  0  0  0  0  0  0  0
  -46.3674   61.7190   60.9773 C   0  0  0  0  0  0  0  0  0  0  0  0
  -47.1840   59.9628   62.4452 C   0  0  0  0  0  0  0  0  0  0  0  0
  -45.2773   61.8895   61.8306 C   0  0  0  0  0  0  0  0  0  0  0  0
  -45.1466   61.1106   62.9791 C   0  0  0  0  0  0  0  0  0  0  0  0
  -46.1100   60.1534   63.3220 C   0  0  0  0  0  0  0  0  0  0  0  0
  -44.3064   62.8055   61.5938 O   0  0  0  0  0  0  0  0  0  0  0  0
  -44.0678   61.3180   63.7884 O   0  0  0  0  0  0  0  0  0  0  0  0
  -44.3527   63.3515   60.8339 H   0  0  0  0  0  0  0  0  0  0  0  0
  -43.4246   61.9589   63.5568 H   0  0  0  0  0  0  0  0  0  0  0  0
 12 13  1  0  0  0
  9 10  2  0  0  0
  9  8  1  0  0  0
  6  7  2  0  0  0
  6  8  1  0  0  0
 10 11  1  0  0  0
  7  5  1  0  0  0
 16 17  2  0  0  0
 16 18  1  0  0  0
 17 19  1  0  0  0
 18 21  2  0  0  0
 13 11  1  0  0  0
  5  4  1  0  0  0
  4  3  1  0  0  0
  3  2  1  0  0  0
  2  1  1  0  0  0
  1 14  1  0  0  0
 14 15  1  0  0  0
 15 21  1  0  0  0
 19 20  2  0  0  0
 19 22  1  0  0  0
 20 21  1  0  0  0
 20 23  1  0  0  0
 22 24  1  0  0  0
 23 25  1  0  0  0
M  END
> <minimizedAffinity>
-7.53593

> <CNNscore>
0.4235140383

> <CNNaffinity>
6.3310174942

> <CNN_VS>
2.6812748909

> <CNNaffinity_variance>
0.1940358728

$$$$
/media/chris/experiments/cd1a-new-docking/inputs/ligands/5j1a_ligand.pdb


 25 25  0  0  0  0  0  0  0  0999 V2000
  -50.3632   57.1901   60.0709 C   0  0  0  0  0  0  0  0  0  0  0  0
  -49.8705   57.8236   58.7613 C   0  0  0  0  0  0  0  0  0  0  0  0
  -48.5928   57.1427   58.2901 C   0  0  0  0  0  0  0  0  0  0  0  0
  -47.9442   57.9850   57.1911 C   0  0  0  0  0  0  0  0  0  0  0  0
  -46.5188   58.3655   57.5912 C   0  0  0  0  0  0  0  0  0  0  0  0
  -46.2484   58.6077   60.2264 C   0  0  0  0  0  0  0  0  0  0  0  0
  -46.2322   57.7359   58.9555 C   0  0  0  0  0  0  0  0  0  0  0  0
  -46.4245   60.1329   60.1681 C   0  0  0  0  0  0  0  0  0  0  0  0
  -47.4463   60.5132   61.2495 C   0  0  0  0  0  0  0  0  0  0  0  0
  -47.0157   60.8852   62.6885 C   0  0  0  0  0  0  0  0  0  0  0  0
  -45.5330   60.9293   63.1071 C   0  0  0  0  0  0  0  0  0  0  0  0
  -43.6533   62.1960   61.9711 C   0  0  0  0  0  0  0  0  0  0  0  0
  -44.9858   62.3088   62.7156 C   0  0  0  0  0  0  0  0  0  0  0  0
  -50.4307   58.1938   61.2511 C   0  0  0  0  0  0  0  0  0  0  0  0
  -49.4459   57.8549   62.3951 C   0  0  0  0  0  0  0  0  0  0  0  0
  -51.0759   60.1560   64.8041 C   0  0  0  0  0  0  0  0  0  0  0  0
  -50.2821   59.9968   65.9476 C   0  0  0  0  0  0  0  0  0  0  0  0
  -50.7841   59.4427   63.6353 C   0  0  0  0  0  0  0  0  0  0  0  0
  -49.2032   59.1143   65.8977 C   0  0  0  0  0  0  0  0  0  0  0  0
  -48.9230   58.4012   64.7332 C   0  0  0  0  0  0  0  0  0  0  0  0
  -49.7233   58.5309   63.5910 C   0  0  0  0  0  0  0  0  0  0  0  0
  -48.3861   58.9058   66.9591 O   0  0  0  0  0  0  0  0  0  0  0  0
  -47.8620   57.5433   64.7332 O   0  0  0  0  0  0  0  0  0  0  0  0
  -48.5362   59.3632   67.7628 H   0  0  0  0  0  0  0  0  0  0  0  0
  -47.3281   57.4583   65.4986 H   0  0  0  0  0  0  0  0  0  0  0  0
 12 13  1  0  0  0
  9 10  2  0  0  0
  9  8  1  0  0  0
  6  7  2  0  0  0
  6  8  1  0  0  0
 10 11  1  0  0  0
  7  5  1  0  0  0
 16 17  2  0  0  0
 16 18  1  0  0  0
 17 19  1  0  0  0
 18 21  2  0  0  0
 13 11  1  0  0  0
  5  4  1  0  0  0
  4  3  1  0  0  0
  3  2  1  0  0  0
  2  1  1  0  0  0
  1 14  1  0  0  0
 14 15  1  0  0  0
 15 21  1  0  0  0
 19 20  2  0  0  0
 19 22  1  0  0  0
 20 21  1  0  0  0
 20 23  1  0  0  0
 22 24  1  0  0  0
 23 25  1  0  0  0
M  END
> <minimizedAffinity>
-7.99646

> <CNNscore>
0.3521390557

> <CNNaffinity>
6.3364114761

> <CNN_VS>
2.2312979698

> <CNNaffinity_variance>
0.1233974546

$$$$
/media/chris/experiments/cd1a-new-docking/inputs/ligands/5j1a_ligand.pdb


 25 25  0  0  0  0  0  0  0  0999 V2000
  -49.9113   58.6111   64.6217 C   0  0  0  0  0  0  0  0  0  0  0  0
  -50.8568   59.6773   64.0488 C   0  0  0  0  0  0  0  0  0  0  0  0
  -51.0854   59.4404   62.5623 C   0  0  0  0  0  0  0  0  0  0  0  0
  -50.3116   58.1974   62.1215 C   0  0  0  0  0  0  0  0  0  0  0  0
  -50.8968   57.6462   60.8214 C   0  0  0  0  0  0  0  0  0  0  0  0
  -49.0494   56.7794   59.1149 C   0  0  0  0  0  0  0  0  0  0  0  0
  -49.9704   56.5342   60.3261 C   0  0  0  0  0  0  0  0  0  0  0  0
  -49.1091   58.0761   58.2930 C   0  0  0  0  0  0  0  0  0  0  0  0
  -47.7127   58.2984   57.6941 C   0  0  0  0  0  0  0  0  0  0  0  0
  -46.5216   58.7869   58.5529 C   0  0  0  0  0  0  0  0  0  0  0  0
  -46.6623   59.0433   60.0661 C   0  0  0  0  0  0  0  0  0  0  0  0
  -48.3173   60.9224   60.4641 C   0  0  0  0  0  0  0  0  0  0  0  0
  -46.8455   60.5546   60.2612 C   0  0  0  0  0  0  0  0  0  0  0  0
  -49.6244   58.7941   66.1347 C   0  0  0  0  0  0  0  0  0  0  0  0
  -48.8778   60.1100   66.4576 C   0  0  0  0  0  0  0  0  0  0  0  0
  -46.2421   60.9142   63.9753 C   0  0  0  0  0  0  0  0  0  0  0  0
  -45.1061   60.3305   64.5515 C   0  0  0  0  0  0  0  0  0  0  0  0
  -47.4835   60.8296   64.6168 C   0  0  0  0  0  0  0  0  0  0  0  0
  -45.2375   59.6704   65.7731 C   0  0  0  0  0  0  0  0  0  0  0  0
  -46.4751   59.5966   66.4103 C   0  0  0  0  0  0  0  0  0  0  0  0
  -47.6137   60.1977   65.8587 C   0  0  0  0  0  0  0  0  0  0  0  0
  -44.1886   59.0779   66.3946 O   0  0  0  0  0  0  0  0  0  0  0  0
  -46.5543   58.9473   67.6077 O   0  0  0  0  0  0  0  0  0  0  0  0
  -43.3376   59.1022   66.0034 H   0  0  0  0  0  0  0  0  0  0  0  0
  -45.7912   58.5461   67.9746 H   0  0  0  0  0  0  0  0  0  0  0  0
 12 13  1  0  0  0
  9 10  2  0  0  0
  9  8  1  0  0  0
  6  7  2  0  0  0
  6  8  1  0  0  0
 10 11  1  0  0  0
  7  5  1  0  0  0
 16 17  2  0  0  0
 16 18  1  0  0  0
 17 19  1  0  0  0
 18 21  2  0  0  0
 13 11  1  0  0  0
  5  4  1  0  0  0
  4  3  1  0  0  0
  3  2  1  0  0  0
  2  1  1  0  0  0
  1 14  1  0  0  0
 14 15  1  0  0  0
 15 21  1  0  0  0
 19 20  2  0  0  0
 19 22  1  0  0  0
 20 21  1  0  0  0
 20 23  1  0  0  0
 22 24  1  0  0  0
 23 25  1  0  0  0
M  END
> <minimizedAffinity>
-8.32945

> <CNNscore>
0.3516814113

> <CNNaffinity>
6.2352404594

> <CNN_VS>
2.1928181648

> <CNNaffinity_variance>
0.1741236150

$$$$
