/media/chris/experiments/cd1a-new-docking/inputs/ligands/5j1a_ligand.pdb


 25 25  0  0  0  0  0  0  0  0999 V2000
  -48.2257   58.8167   66.3915 C   0  0  0  0  0  0  0  0  0  0  0  0
  -49.5655   59.5638   66.3154 C   0  0  0  0  0  0  0  0  0  0  0  0
  -50.4148   59.0158   65.1767 C   0  0  0  0  0  0  0  0  0  0  0  0
  -51.0569   60.1775   64.4178 C   0  0  0  0  0  0  0  0  0  0  0  0
  -51.0126   59.9123   62.9130 C   0  0  0  0  0  0  0  0  0  0  0  0
  -49.5539   58.2479   61.4370 C   0  0  0  0  0  0  0  0  0  0  0  0
  -50.3908   58.5309   62.6999 C   0  0  0  0  0  0  0  0  0  0  0  0
  -49.4140   59.2753   60.3030 C   0  0  0  0  0  0  0  0  0  0  0  0
  -49.4799   58.5009   58.9786 C   0  0  0  0  0  0  0  0  0  0  0  0
  -48.2390   58.3238   58.0709 C   0  0  0  0  0  0  0  0  0  0  0  0
  -46.8583   58.8849   58.4638 C   0  0  0  0  0  0  0  0  0  0  0  0
  -45.5709   58.2101   60.5412 C   0  0  0  0  0  0  0  0  0  0  0  0
  -46.0906   57.7611   59.1733 C   0  0  0  0  0  0  0  0  0  0  0  0
  -47.4966   58.7231   65.0260 C   0  0  0  0  0  0  0  0  0  0  0  0
  -46.1805   59.5351   64.9821 C   0  0  0  0  0  0  0  0  0  0  0  0
  -47.0799   61.3175   61.8564 C   0  0  0  0  0  0  0  0  0  0  0  0
  -45.8540   61.8767   61.4724 C   0  0  0  0  0  0  0  0  0  0  0  0
  -47.1708   60.5423   63.0187 C   0  0  0  0  0  0  0  0  0  0  0  0
  -44.7333   61.6486   62.2707 C   0  0  0  0  0  0  0  0  0  0  0  0
  -44.8325   60.8823   63.4309 C   0  0  0  0  0  0  0  0  0  0  0  0
  -46.0567   60.3388   63.8408 C   0  0  0  0  0  0  0  0  0  0  0  0
  -43.5115   62.1516   61.9676 O   0  0  0  0  0  0  0  0  0  0  0  0
  -43.7111   60.6924   64.1848 O   0  0  0  0  0  0  0  0  0  0  0  0
  -43.3973   62.6727   61.1972 H   0  0  0  0  0  0  0  0  0  0  0  0
  -42.8934   61.0570   63.9084 H   0  0  0  0  0  0  0  0  0  0  0  0
 12 13  1  0  0  0
  9 10  2  0  0  0
  9  8  1  0  0  0
  6  7  2  0  0  0
  6  8  1  0  0  0
 10 11  1  0  0  0
  7  5  1  0  0  0
 16 17  2  0  0  0
 16 18  1  0  0  0
 17 19  1  0  0  0
 18 21  2  0  0  0
 13 11  1  0  0  0
  5  4  1  0  0  0
  4  3  1  0  0  0
  3  2  1  0  0  0
  2  1  1  0  0  0
  1 14  1  0  0  0
 14 15  1  0  0  0
 15 21  1  0  0  0
 19 20  2  0  0  0
 19 22  1  0  0  0
 20 21  1  0  0  0
 20 23  1  0  0  0
 22 24  1  0  0  0
 23 25  1  0  0  0
M  END
> <minimizedAffinity>
-7.35157

> <CNNscore>
0.4182035625

> <CNNaffinity>
6.2202076912

> <CNN_VS>
2.6013131142

> <CNNaffinity_variance>
0.3305811286

$$$$
/media/chris/experiments/cd1a-new-docking/inputs/ligands/5j1a_ligand.pdb


 25 25  0  0  0  0  0  0  0  0999 V2000
  -50.6950   59.0225   63.1302 C   0  0  0  0  0  0  0  0  0  0  0  0
  -50.1535   59.3394   61.7283 C   0  0  0  0  0  0  0  0  0  0  0  0
  -49.6056   58.0788   61.0736 C   0  0  0  0  0  0  0  0  0  0  0  0
  -50.3288   57.8399   59.7477 C   0  0  0  0  0  0  0  0  0  0  0  0
  -49.4356   58.2539   58.5784 C   0  0  0  0  0  0  0  0  0  0  0  0
  -47.1198   57.0456   58.0749 C   0  0  0  0  0  0  0  0  0  0  0  0
  -48.6600   57.0169   58.1217 C   0  0  0  0  0  0  0  0  0  0  0  0
  -46.3180   58.3256   58.3574 C   0  0  0  0  0  0  0  0  0  0  0  0
  -45.8556   58.2577   59.8201 C   0  0  0  0  0  0  0  0  0  0  0  0
  -46.1336   59.4050   60.8209 C   0  0  0  0  0  0  0  0  0  0  0  0
  -46.9223   60.6651   60.4137 C   0  0  0  0  0  0  0  0  0  0  0  0
  -45.0604   61.8352   61.6759 C   0  0  0  0  0  0  0  0  0  0  0  0
  -46.5674   61.7728   61.4151 C   0  0  0  0  0  0  0  0  0  0  0  0
  -50.2107   60.0192   64.2151 C   0  0  0  0  0  0  0  0  0  0  0  0
  -50.2691   59.4359   65.6468 C   0  0  0  0  0  0  0  0  0  0  0  0
  -47.9561   56.5796   66.1441 C   0  0  0  0  0  0  0  0  0  0  0  0
  -46.8698   57.1880   66.7869 C   0  0  0  0  0  0  0  0  0  0  0  0
  -49.0749   57.3366   65.7763 C   0  0  0  0  0  0  0  0  0  0  0  0
  -46.9257   58.5571   67.0474 C   0  0  0  0  0  0  0  0  0  0  0  0
  -48.0394   59.3062   66.6715 C   0  0  0  0  0  0  0  0  0  0  0  0
  -49.1211   58.7164   66.0051 C   0  0  0  0  0  0  0  0  0  0  0  0
  -45.9184   59.2198   67.6671 O   0  0  0  0  0  0  0  0  0  0  0  0
  -48.0463   60.6441   66.9399 O   0  0  0  0  0  0  0  0  0  0  0  0
  -45.1498   58.7570   67.9378 H   0  0  0  0  0  0  0  0  0  0  0  0
  -47.3214   61.0362   67.3858 H   0  0  0  0  0  0  0  0  0  0  0  0
 12 13  1  0  0  0
  9 10  2  0  0  0
  9  8  1  0  0  0
  6  7  2  0  0  0
  6  8  1  0  0  0
 10 11  1  0  0  0
  7  5  1  0  0  0
 16 17  2  0  0  0
 16 18  1  0  0  0
 17 19  1  0  0  0
 18 21  2  0  0  0
 13 11  1  0  0  0
  5  4  1  0  0  0
  4  3  1  0  0  0
  3  2  1  0  0  0
  2  1  1  0  0  0
  1 14  1  0  0  0
 14 15  1  0  0  0
 15 21  1  0  0  0
 19 20  2  0  0  0
 19 22  1  0  0  0
 20 21  1  0  0  0
 20 23  1  0  0  0
 22 24  1  0  0  0
 23 25  1  0  0  0
M  END
> <minimizedAffinity>
-7.97148

> <CNNscore>
0.4003078043

> <CNNaffinity>
6.2854356766

> <CNN_VS>
2.5161089897

> <CNNaffinity_variance>
0.3314560354

$$$$
/media/chris/experiments/cd1a-new-docking/inputs/ligands/5j1a_ligand.pdb


 25 25  0  0  0  0  0  0  0  0999 V2000
  -37.5766   59.9437   61.3626 C   0  0  0  0  0  0  0  0  0  0  0  0
  -38.7476   59.7971   60.3796 C   0  0  0  0  0  0  0  0  0  0  0  0
  -39.4519   58.4634   60.5884 C   0  0  0  0  0  0  0  0  0  0  0  0
  -38.4843   57.4748   61.2398 C   0  0  0  0  0  0  0  0  0  0  0  0
  -39.2150   56.6353   62.2876 C   0  0  0  0  0  0  0  0  0  0  0  0
  -38.3413   57.7947   64.5167 C   0  0  0  0  0  0  0  0  0  0  0  0
  -39.4720   57.5263   63.5043 C   0  0  0  0  0  0  0  0  0  0  0  0
  -36.9759   57.0966   64.4200 C   0  0  0  0  0  0  0  0  0  0  0  0
  -35.9131   58.1961   64.2798 C   0  0  0  0  0  0  0  0  0  0  0  0
  -34.9294   58.2367   63.0858 C   0  0  0  0  0  0  0  0  0  0  0  0
  -34.9853   57.1950   61.9512 C   0  0  0  0  0  0  0  0  0  0  0  0
  -32.5309   57.6013   62.4405 C   0  0  0  0  0  0  0  0  0  0  0  0
  -33.5418   56.7767   61.6399 C   0  0  0  0  0  0  0  0  0  0  0  0
  -37.5743   61.2987   62.1169 C   0  0  0  0  0  0  0  0  0  0  0  0
  -37.7745   61.1457   63.6433 C   0  0  0  0  0  0  0  0  0  0  0  0
  -35.0293   63.4925   64.4871 C   0  0  0  0  0  0  0  0  0  0  0  0
  -35.0898   63.5265   65.8866 C   0  0  0  0  0  0  0  0  0  0  0  0
  -35.9225   62.6971   63.7595 C   0  0  0  0  0  0  0  0  0  0  0  0
  -36.0562   62.7578   66.5350 C   0  0  0  0  0  0  0  0  0  0  0  0
  -36.9476   61.9741   65.8040 C   0  0  0  0  0  0  0  0  0  0  0  0
  -36.9155   61.9505   64.4038 C   0  0  0  0  0  0  0  0  0  0  0  0
  -36.1789   62.7334   67.8848 O   0  0  0  0  0  0  0  0  0  0  0  0
  -37.8812   61.2446   66.4808 O   0  0  0  0  0  0  0  0  0  0  0  0
  -35.6014   63.2446   68.4171 H   0  0  0  0  0  0  0  0  0  0  0  0
  -37.9005   61.2621   67.4175 H   0  0  0  0  0  0  0  0  0  0  0  0
 12 13  1  0  0  0
  9 10  2  0  0  0
  9  8  1  0  0  0
  6  7  2  0  0  0
  6  8  1  0  0  0
 10 11  1  0  0  0
  7  5  1  0  0  0
 16 17  2  0  0  0
 16 18  1  0  0  0
 17 19  1  0  0  0
 18 21  2  0  0  0
 13 11  1  0  0  0
  5  4  1  0  0  0
  4  3  1  0  0  0
  3  2  1  0  0  0
  2  1  1  0  0  0
  1 14  1  0  0  0
 14 15  1  0  0  0
 15 21  1  0  0  0
 19 20  2  0  0  0
 19 22  1  0  0  0
 20 21  1  0  0  0
 20 23  1  0  0  0
 22 24  1  0  0  0
 23 25  1  0  0  0
M  END
> <minimizedAffinity>
-7.38239

> <CNNscore>
0.3942082524

> <CNNaffinity>
6.0975327492

> <CNN_VS>
2.4036977291

> <CNNaffinity_variance>
0.1134573817

$$$$
/media/chris/experiments/cd1a-new-docking/inputs/ligands/5j1a_ligand.pdb


 25 25  0  0  0  0  0  0  0  0999 V2000
  -46.3913   57.6705   59.8383 C   0  0  0  0  0  0  0  0  0  0  0  0
  -46.4986   58.6415   58.6532 C   0  0  0  0  0  0  0  0  0  0  0  0
  -47.9411   59.0903   58.4637 C   0  0  0  0  0  0  0  0  0  0  0  0
  -48.8406   57.8619   58.3229 C   0  0  0  0  0  0  0  0  0  0  0  0
  -50.1746   58.1022   59.0294 C   0  0  0  0  0  0  0  0  0  0  0  0
  -50.2287   57.8953   61.6810 C   0  0  0  0  0  0  0  0  0  0  0  0
  -50.1995   57.2343   60.2890 C   0  0  0  0  0  0  0  0  0  0  0  0
  -50.1105   59.4162   61.8655 C   0  0  0  0  0  0  0  0  0  0  0  0
  -51.1779   59.8336   62.8875 C   0  0  0  0  0  0  0  0  0  0  0  0
  -50.8118   60.2325   64.3372 C   0  0  0  0  0  0  0  0  0  0  0  0
  -49.3505   60.2676   64.8259 C   0  0  0  0  0  0  0  0  0  0  0  0
  -50.0491   58.0744   65.8893 C   0  0  0  0  0  0  0  0  0  0  0  0
  -49.2606   59.3738   66.0705 C   0  0  0  0  0  0  0  0  0  0  0  0
  -45.1243   57.8957   60.7037 C   0  0  0  0  0  0  0  0  0  0  0  0
  -45.4257   58.5836   62.0562 C   0  0  0  0  0  0  0  0  0  0  0  0
  -46.5631   62.0889   61.6383 C   0  0  0  0  0  0  0  0  0  0  0  0
  -45.3650   62.8048   61.7629 C   0  0  0  0  0  0  0  0  0  0  0  0
  -46.5659   60.6922   61.7344 C   0  0  0  0  0  0  0  0  0  0  0  0
  -44.1827   62.0998   61.9872 C   0  0  0  0  0  0  0  0  0  0  0  0
  -44.1938   60.7097   62.0897 C   0  0  0  0  0  0  0  0  0  0  0  0
  -45.3875   59.9831   61.9931 C   0  0  0  0  0  0  0  0  0  0  0  0
  -42.9827   62.7171   62.1166 O   0  0  0  0  0  0  0  0  0  0  0  0
  -43.0140   60.0630   62.3173 O   0  0  0  0  0  0  0  0  0  0  0  0
  -42.9270   63.6505   62.0549 H   0  0  0  0  0  0  0  0  0  0  0  0
  -42.2169   60.5514   62.3816 H   0  0  0  0  0  0  0  0  0  0  0  0
 12 13  1  0  0  0
  9 10  2  0  0  0
  9  8  1  0  0  0
  6  7  2  0  0  0
  6  8  1  0  0  0
 10 11  1  0  0  0
  7  5  1  0  0  0
 16 17  2  0  0  0
 16 18  1  0  0  0
 17 19  1  0  0  0
 18 21  2  0  0  0
 13 11  1  0  0  0
  5  4  1  0  0  0
  4  3  1  0  0  0
  3  2  1  0  0  0
  2  1  1  0  0  0
  1 14  1  0  0  0
 14 15  1  0  0  0
 15 21  1  0  0  0
 19 20  2  0  0  0
 19 22  1  0  0  0
 20 21  1  0  0  0
 20 23  1  0  0  0
 22 24  1  0  0  0
 23 25  1  0  0  0
M  END
> <minimizedAffinity>
-7.91694

> <CNNscore>
0.3676217198

> <CNNaffinity>
6.1802015305

> <CNN_VS>
2.2719762325

> <CNNaffinity_variance>
0.2039234936

$$$$
/media/chris/experiments/cd1a-new-docking/inputs/ligands/5j1a_ligand.pdb


 25 25  0  0  0  0  0  0  0  0999 V2000
  -48.7060   58.9938   64.5879 C   0  0  0  0  0  0  0  0  0  0  0  0
  -49.8765   58.3514   63.8287 C   0  0  0  0  0  0  0  0  0  0  0  0
  -49.4575   57.9974   62.4084 C   0  0  0  0  0  0  0  0  0  0  0  0
  -50.6528   58.1653   61.4698 C   0  0  0  0  0  0  0  0  0  0  0  0
  -50.2935   57.6764   60.0668 C   0  0  0  0  0  0  0  0  0  0  0  0
  -48.3424   55.9729   59.4603 C   0  0  0  0  0  0  0  0  0  0  0  0
  -49.6543   56.2932   60.2031 C   0  0  0  0  0  0  0  0  0  0  0  0
  -47.6998   56.9611   58.4747 C   0  0  0  0  0  0  0  0  0  0  0  0
  -46.2175   57.0836   58.8567 C   0  0  0  0  0  0  0  0  0  0  0  0
  -45.7231   58.1149   59.8993 C   0  0  0  0  0  0  0  0  0  0  0  0
  -46.6969   59.0530   60.6392 C   0  0  0  0  0  0  0  0  0  0  0  0
  -48.3032   60.9473   60.1292 C   0  0  0  0  0  0  0  0  0  0  0  0
  -47.0414   60.2038   59.6840 C   0  0  0  0  0  0  0  0  0  0  0  0
  -48.0457   60.1673   63.8187 C   0  0  0  0  0  0  0  0  0  0  0  0
  -46.7913   60.7303   64.5279 C   0  0  0  0  0  0  0  0  0  0  0  0
  -45.0634   62.6332   61.8541 C   0  0  0  0  0  0  0  0  0  0  0  0
  -43.8323   61.9696   61.7681 C   0  0  0  0  0  0  0  0  0  0  0  0
  -46.0333   62.2088   62.7701 C   0  0  0  0  0  0  0  0  0  0  0  0
  -43.5942   60.8856   62.6128 C   0  0  0  0  0  0  0  0  0  0  0  0
  -44.5613   60.4732   63.5280 C   0  0  0  0  0  0  0  0  0  0  0  0
  -45.7861   61.1431   63.6429 C   0  0  0  0  0  0  0  0  0  0  0  0
  -42.4312   60.1895   62.5903 O   0  0  0  0  0  0  0  0  0  0  0  0
  -44.2811   59.4126   64.3394 O   0  0  0  0  0  0  0  0  0  0  0  0
  -41.7522   60.4309   61.9913 H   0  0  0  0  0  0  0  0  0  0  0  0
  -43.4610   58.9662   64.2606 H   0  0  0  0  0  0  0  0  0  0  0  0
 12 13  1  0  0  0
  9 10  2  0  0  0
  9  8  1  0  0  0
  6  7  2  0  0  0
  6  8  1  0  0  0
 10 11  1  0  0  0
  7  5  1  0  0  0
 16 17  2  0  0  0
 16 18  1  0  0  0
 17 19  1  0  0  0
 18 21  2  0  0  0
 13 11  1  0  0  0
  5  4  1  0  0  0
  4  3  1  0  0  0
  3  2  1  0  0  0
  2  1  1  0  0  0
  1 14  1  0  0  0
 14 15  1  0  0  0
 15 21  1  0  0  0
 19 20  2  0  0  0
 19 22  1  0  0  0
 20 21  1  0  0  0
 20 23  1  0  0  0
 22 24  1  0  0  0
 23 25  1  0  0  0
M  END
> <minimizedAffinity>
-7.30176

> <CNNscore>
0.3474337459

> <CNNaffinity>
6.1011781693

> <CNN_VS>
2.1197552681

> <CNNaffinity_variance>
0.2087891400

$$$$
/media/chris/experiments/cd1a-new-docking/inputs/ligands/5j1a_ligand.pdb


 25 25  0  0  0  0  0  0  0  0999 V2000
  -42.0399   59.2262   66.2597 C   0  0  0  0  0  0  0  0  0  0  0  0
  -43.4440   59.7528   65.9277 C   0  0  0  0  0  0  0  0  0  0  0  0
  -44.3207   58.6276   65.3956 C   0  0  0  0  0  0  0  0  0  0  0  0
  -43.7503   57.2827   65.8470 C   0  0  0  0  0  0  0  0  0  0  0  0
  -43.6982   56.3104   64.6687 C   0  0  0  0  0  0  0  0  0  0  0  0
  -41.4295   55.9818   63.3190 C   0  0  0  0  0  0  0  0  0  0  0  0
  -42.2764   55.7518   64.5860 C   0  0  0  0  0  0  0  0  0  0  0  0
  -42.0041   56.6572   62.0642 C   0  0  0  0  0  0  0  0  0  0  0  0
  -41.6399   58.1469   62.1437 C   0  0  0  0  0  0  0  0  0  0  0  0
  -40.2598   58.6780   61.6876 C   0  0  0  0  0  0  0  0  0  0  0  0
  -39.1859   57.7451   61.0941 C   0  0  0  0  0  0  0  0  0  0  0  0
  -38.6352   60.0832   60.2825 C   0  0  0  0  0  0  0  0  0  0  0  0
  -38.2955   58.5944   60.1767 C   0  0  0  0  0  0  0  0  0  0  0  0
  -41.0015   59.4989   65.1406 C   0  0  0  0  0  0  0  0  0  0  0  0
  -39.5960   59.8457   65.6862 C   0  0  0  0  0  0  0  0  0  0  0  0
  -37.2200   57.4033   64.2216 C   0  0  0  0  0  0  0  0  0  0  0  0
  -36.3972   58.2247   63.4395 C   0  0  0  0  0  0  0  0  0  0  0  0
  -38.2722   57.9555   64.9618 C   0  0  0  0  0  0  0  0  0  0  0  0
  -36.6501   59.5960   63.4119 C   0  0  0  0  0  0  0  0  0  0  0  0
  -37.7043   60.1381   64.1452 C   0  0  0  0  0  0  0  0  0  0  0  0
  -38.5508   59.3260   64.9106 C   0  0  0  0  0  0  0  0  0  0  0  0
  -35.8995   60.4581   62.6831 O   0  0  0  0  0  0  0  0  0  0  0  0
  -37.9187   61.4842   64.0815 O   0  0  0  0  0  0  0  0  0  0  0  0
  -35.1803   60.1387   62.1744 H   0  0  0  0  0  0  0  0  0  0  0  0
  -37.3510   62.0253   63.5687 H   0  0  0  0  0  0  0  0  0  0  0  0
 12 13  1  0  0  0
  9 10  2  0  0  0
  9  8  1  0  0  0
  6  7  2  0  0  0
  6  8  1  0  0  0
 10 11  1  0  0  0
  7  5  1  0  0  0
 16 17  2  0  0  0
 16 18  1  0  0  0
 17 19  1  0  0  0
 18 21  2  0  0  0
 13 11  1  0  0  0
  5  4  1  0  0  0
  4  3  1  0  0  0
  3  2  1  0  0  0
  2  1  1  0  0  0
  1 14  1  0  0  0
 14 15  1  0  0  0
 15 21  1  0  0  0
 19 20  2  0  0  0
 19 22  1  0  0  0
 20 21  1  0  0  0
 20 23  1  0  0  0
 22 24  1  0  0  0
 23 25  1  0  0  0
M  END
> <minimizedAffinity>
-6.73837

> <CNNscore>
0.3285684586

> <CNNaffinity>
6.0696883202

> <CNN_VS>
1.9943081141

> <CNNaffinity_variance>
0.1957571656

$$$$
/media/chris/experiments/cd1a-new-docking/inputs/ligands/5j1a_ligand.pdb


 25 25  0  0  0  0  0  0  0  0999 V2000
  -45.5727   57.5752   59.4994 C   0  0  0  0  0  0  0  0  0  0  0  0
  -46.6040   57.4601   58.3671 C   0  0  0  0  0  0  0  0  0  0  0  0
  -47.9256   56.9288   58.9049 C   0  0  0  0  0  0  0  0  0  0  0  0
  -49.0765   57.4930   58.0712 C   0  0  0  0  0  0  0  0  0  0  0  0
  -50.1062   58.1635   58.9804 C   0  0  0  0  0  0  0  0  0  0  0  0
  -49.4745   59.7973   60.9825 C   0  0  0  0  0  0  0  0  0  0  0  0
  -49.5061   59.4811   59.4744 C   0  0  0  0  0  0  0  0  0  0  0  0
  -50.1405   58.8832   62.0226 C   0  0  0  0  0  0  0  0  0  0  0  0
  -49.0406   57.9864   62.6090 C   0  0  0  0  0  0  0  0  0  0  0  0
  -48.2421   58.3893   63.8720 C   0  0  0  0  0  0  0  0  0  0  0  0
  -48.5317   59.6980   64.6330 C   0  0  0  0  0  0  0  0  0  0  0  0
  -46.1540   60.2426   65.3248 C   0  0  0  0  0  0  0  0  0  0  0  0
  -47.3288   60.6278   64.4224 C   0  0  0  0  0  0  0  0  0  0  0  0
  -45.9815   58.5864   60.6017 C   0  0  0  0  0  0  0  0  0  0  0  0
  -45.0139   58.5949   61.8087 C   0  0  0  0  0  0  0  0  0  0  0  0
  -44.6135   62.2821   61.8130 C   0  0  0  0  0  0  0  0  0  0  0  0
  -43.4603   62.4528   62.5902 C   0  0  0  0  0  0  0  0  0  0  0  0
  -45.1131   60.9988   61.5607 C   0  0  0  0  0  0  0  0  0  0  0  0
  -42.8266   61.3230   63.1072 C   0  0  0  0  0  0  0  0  0  0  0  0
  -43.3338   60.0487   62.8586 C   0  0  0  0  0  0  0  0  0  0  0  0
  -44.5002   59.8647   62.1052 C   0  0  0  0  0  0  0  0  0  0  0  0
  -41.7058   61.4025   63.8657 O   0  0  0  0  0  0  0  0  0  0  0  0
  -42.6848   58.9731   63.3915 O   0  0  0  0  0  0  0  0  0  0  0  0
  -41.3291   62.2385   64.0588 H   0  0  0  0  0  0  0  0  0  0  0  0
  -41.9047   59.0989   63.8951 H   0  0  0  0  0  0  0  0  0  0  0  0
 12 13  1  0  0  0
  9 10  2  0  0  0
  9  8  1  0  0  0
  6  7  2  0  0  0
  6  8  1  0  0  0
 10 11  1  0  0  0
  7  5  1  0  0  0
 16 17  2  0  0  0
 16 18  1  0  0  0
 17 19  1  0  0  0
 18 21  2  0  0  0
 13 11  1  0  0  0
  5  4  1  0  0  0
  4  3  1  0  0  0
  3  2  1  0  0  0
  2  1  1  0  0  0
  1 14  1  0  0  0
 14 15  1  0  0  0
 15 21  1  0  0  0
 19 20  2  0  0  0
 19 22  1  0  0  0
 20 21  1  0  0  0
 20 23  1  0  0  0
 22 24  1  0  0  0
 23 25  1  0  0  0
M  END
> <minimizedAffinity>
-7.26206

> <CNNscore>
0.2793635726

> <CNNaffinity>
6.0550222397

> <CNN_VS>
1.6915526390

> <CNNaffinity_variance>
0.1776692569

$$$$
/media/chris/experiments/cd1a-new-docking/inputs/ligands/5j1a_ligand.pdb


 25 25  0  0  0  0  0  0  0  0999 V2000
  -51.1771   59.9202   64.1037 C   0  0  0  0  0  0  0  0  0  0  0  0
  -49.8280   60.1688   64.7945 C   0  0  0  0  0  0  0  0  0  0  0  0
  -49.7964   59.4902   66.1571 C   0  0  0  0  0  0  0  0  0  0  0  0
  -49.6802   57.9773   65.9682 C   0  0  0  0  0  0  0  0  0  0  0  0
  -48.3487   57.6303   65.3026 C   0  0  0  0  0  0  0  0  0  0  0  0
  -46.5247   57.5767   67.2382 C   0  0  0  0  0  0  0  0  0  0  0  0
  -47.5130   56.8412   66.3121 C   0  0  0  0  0  0  0  0  0  0  0  0
  -46.2489   59.0826   67.1069 C   0  0  0  0  0  0  0  0  0  0  0  0
  -44.9399   59.2371   66.3191 C   0  0  0  0  0  0  0  0  0  0  0  0
  -44.8703   60.0357   64.9953 C   0  0  0  0  0  0  0  0  0  0  0  0
  -46.1046   60.7512   64.4121 C   0  0  0  0  0  0  0  0  0  0  0  0
  -46.4304   61.7999   62.1268 C   0  0  0  0  0  0  0  0  0  0  0  0
  -45.5982   61.7990   63.4115 C   0  0  0  0  0  0  0  0  0  0  0  0
  -51.0458   59.6353   62.5850 C   0  0  0  0  0  0  0  0  0  0  0  0
  -50.3721   58.2772   62.2767 C   0  0  0  0  0  0  0  0  0  0  0  0
  -49.8496   57.9869   58.6163 C   0  0  0  0  0  0  0  0  0  0  0  0
  -48.4556   58.0792   58.5090 C   0  0  0  0  0  0  0  0  0  0  0  0
  -50.4683   58.0508   59.8705 C   0  0  0  0  0  0  0  0  0  0  0  0
  -47.7024   58.2388   59.6719 C   0  0  0  0  0  0  0  0  0  0  0  0
  -48.3255   58.3096   60.9169 C   0  0  0  0  0  0  0  0  0  0  0  0
  -49.7196   58.2449   61.0368 C   0  0  0  0  0  0  0  0  0  0  0  0
  -46.3502   58.3334   59.6539 O   0  0  0  0  0  0  0  0  0  0  0  0
  -47.5486   58.4740   62.0265 O   0  0  0  0  0  0  0  0  0  0  0  0
  -45.8884   58.2911   58.8396 H   0  0  0  0  0  0  0  0  0  0  0  0
  -46.6163   58.5170   61.9436 H   0  0  0  0  0  0  0  0  0  0  0  0
 12 13  1  0  0  0
  9 10  2  0  0  0
  9  8  1  0  0  0
  6  7  2  0  0  0
  6  8  1  0  0  0
 10 11  1  0  0  0
  7  5  1  0  0  0
 16 17  2  0  0  0
 16 18  1  0  0  0
 17 19  1  0  0  0
 18 21  2  0  0  0
 13 11  1  0  0  0
  5  4  1  0  0  0
  4  3  1  0  0  0
  3  2  1  0  0  0
  2  1  1  0  0  0
  1 14  1  0  0  0
 14 15  1  0  0  0
 15 21  1  0  0  0
 19 20  2  0  0  0
 19 22  1  0  0  0
 20 21  1  0  0  0
 20 23  1  0  0  0
 22 24  1  0  0  0
 23 25  1  0  0  0
M  END
> <minimizedAffinity>
-7.77805

> <CNNscore>
0.2583164573

> <CNNaffinity>
6.2273092270

> <CNN_VS>
1.6086164713

> <CNNaffinity_variance>
0.1721324772

$$$$
/media/chris/experiments/cd1a-new-docking/inputs/ligands/5j1a_ligand.pdb


 25 25  0  0  0  0  0  0  0  0999 V2000
  -50.5277   59.1105   62.1652 C   0  0  0  0  0  0  0  0  0  0  0  0
  -49.6314   58.3359   63.1428 C   0  0  0  0  0  0  0  0  0  0  0  0
  -50.0927   58.5591   64.5765 C   0  0  0  0  0  0  0  0  0  0  0  0
  -50.1110   60.0584   64.8763 C   0  0  0  0  0  0  0  0  0  0  0  0
  -48.6932   60.5573   65.1544 C   0  0  0  0  0  0  0  0  0  0  0  0
  -46.6789   59.5632   66.5796 C   0  0  0  0  0  0  0  0  0  0  0  0
  -48.1846   59.8448   66.4090 C   0  0  0  0  0  0  0  0  0  0  0  0
  -45.6608   59.8650   65.4691 C   0  0  0  0  0  0  0  0  0  0  0  0
  -45.6130   58.6350   64.5510 C   0  0  0  0  0  0  0  0  0  0  0  0
  -45.9739   58.7201   63.0485 C   0  0  0  0  0  0  0  0  0  0  0  0
  -46.3671   60.0529   62.3816 C   0  0  0  0  0  0  0  0  0  0  0  0
  -45.2070   62.1983   61.6887 C   0  0  0  0  0  0  0  0  0  0  0  0
  -45.0858   60.6774   61.8123 C   0  0  0  0  0  0  0  0  0  0  0  0
  -49.7319   60.0064   61.1810 C   0  0  0  0  0  0  0  0  0  0  0  0
  -49.7183   59.4582   59.7344 C   0  0  0  0  0  0  0  0  0  0  0  0
  -46.2610   58.6034   58.6990 C   0  0  0  0  0  0  0  0  0  0  0  0
  -46.2805   57.2028   58.7334 C   0  0  0  0  0  0  0  0  0  0  0  0
  -47.4078   59.3351   59.0298 C   0  0  0  0  0  0  0  0  0  0  0  0
  -47.4594   56.5573   59.1057 C   0  0  0  0  0  0  0  0  0  0  0  0
  -48.5954   57.2922   59.4414 C   0  0  0  0  0  0  0  0  0  0  0  0
  -48.5828   58.6929   59.4366 C   0  0  0  0  0  0  0  0  0  0  0  0
  -47.5612   55.2066   59.1614 O   0  0  0  0  0  0  0  0  0  0  0  0
  -49.7239   56.6178   59.8070 O   0  0  0  0  0  0  0  0  0  0  0  0
  -46.8230   54.6718   58.9443 H   0  0  0  0  0  0  0  0  0  0  0  0
  -49.7297   55.6808   59.8094 H   0  0  0  0  0  0  0  0  0  0  0  0
 12 13  1  0  0  0
  9 10  2  0  0  0
  9  8  1  0  0  0
  6  7  2  0  0  0
  6  8  1  0  0  0
 10 11  1  0  0  0
  7  5  1  0  0  0
 16 17  2  0  0  0
 16 18  1  0  0  0
 17 19  1  0  0  0
 18 21  2  0  0  0
 13 11  1  0  0  0
  5  4  1  0  0  0
  4  3  1  0  0  0
  3  2  1  0  0  0
  2  1  1  0  0  0
  1 14  1  0  0  0
 14 15  1  0  0  0
 15 21  1  0  0  0
 19 20  2  0  0  0
 19 22  1  0  0  0
 20 21  1  0  0  0
 20 23  1  0  0  0
 22 24  1  0  0  0
 23 25  1  0  0  0
M  END
> <minimizedAffinity>
-7.30684

> <CNNscore>
0.2190338820

> <CNNaffinity>
6.3777713776

> <CNN_VS>
1.3969479799

> <CNNaffinity_variance>
0.1887122244

$$$$
