/media/chris/experiments/cd1a-new-docking/inputs/ligands/5j1a_ligand.pdb


 25 25  0  0  0  0  0  0  0  0999 V2000
  -47.0401   56.6946   56.9943 C   0  0  0  0  0  0  0  0  0  0  0  0
  -48.5108   57.1376   57.0049 C   0  0  0  0  0  0  0  0  0  0  0  0
  -49.1261   56.9023   58.3775 C   0  0  0  0  0  0  0  0  0  0  0  0
  -50.0726   58.0551   58.7140 C   0  0  0  0  0  0  0  0  0  0  0  0
  -50.6029   57.9023   60.1394 C   0  0  0  0  0  0  0  0  0  0  0  0
  -48.9497   57.9164   62.2234 C   0  0  0  0  0  0  0  0  0  0  0  0
  -49.5167   57.2185   60.9716 C   0  0  0  0  0  0  0  0  0  0  0  0
  -49.3490   59.3485   62.6113 C   0  0  0  0  0  0  0  0  0  0  0  0
  -50.5924   59.2458   63.5066 C   0  0  0  0  0  0  0  0  0  0  0  0
  -50.4941   58.8709   65.0048 C   0  0  0  0  0  0  0  0  0  0  0  0
  -49.1380   58.6145   65.6908 C   0  0  0  0  0  0  0  0  0  0  0  0
  -47.2523   60.2098   66.2634 C   0  0  0  0  0  0  0  0  0  0  0  0
  -48.7432   59.9035   66.4247 C   0  0  0  0  0  0  0  0  0  0  0  0
  -46.0714   57.7692   57.5525 C   0  0  0  0  0  0  0  0  0  0  0  0
  -45.8542   57.6578   59.0802 C   0  0  0  0  0  0  0  0  0  0  0  0
  -47.2933   60.9947   59.8216 C   0  0  0  0  0  0  0  0  0  0  0  0
  -46.7704   61.2658   61.0930 C   0  0  0  0  0  0  0  0  0  0  0  0
  -46.9779   59.7978   59.1674 C   0  0  0  0  0  0  0  0  0  0  0  0
  -45.9366   60.3209   61.6906 C   0  0  0  0  0  0  0  0  0  0  0  0
  -45.6329   59.1279   61.0370 C   0  0  0  0  0  0  0  0  0  0  0  0
  -46.1692   58.8322   59.7773 C   0  0  0  0  0  0  0  0  0  0  0  0
  -45.3886   60.5083   62.9164 O   0  0  0  0  0  0  0  0  0  0  0  0
  -44.8192   58.2297   61.6638 O   0  0  0  0  0  0  0  0  0  0  0  0
  -45.5650   61.2955   63.3930 H   0  0  0  0  0  0  0  0  0  0  0  0
  -44.4617   58.4298   62.5065 H   0  0  0  0  0  0  0  0  0  0  0  0
 12 13  1  0  0  0
  9 10  2  0  0  0
  9  8  1  0  0  0
  6  7  2  0  0  0
  6  8  1  0  0  0
 10 11  1  0  0  0
  7  5  1  0  0  0
 16 17  2  0  0  0
 16 18  1  0  0  0
 17 19  1  0  0  0
 18 21  2  0  0  0
 13 11  1  0  0  0
  5  4  1  0  0  0
  4  3  1  0  0  0
  3  2  1  0  0  0
  2  1  1  0  0  0
  1 14  1  0  0  0
 14 15  1  0  0  0
 15 21  1  0  0  0
 19 20  2  0  0  0
 19 22  1  0  0  0
 20 21  1  0  0  0
 20 23  1  0  0  0
 22 24  1  0  0  0
 23 25  1  0  0  0
M  END
> <minimizedAffinity>
-7.93410

> <CNNscore>
0.5462923050

> <CNNaffinity>
6.6764860153

> <CNN_VS>
3.6473128796

> <CNNaffinity_variance>
0.0691902265

$$$$
/media/chris/experiments/cd1a-new-docking/inputs/ligands/5j1a_ligand.pdb


 25 25  0  0  0  0  0  0  0  0999 V2000
  -48.6894   59.0985   62.0615 C   0  0  0  0  0  0  0  0  0  0  0  0
  -49.8504   58.5310   62.8916 C   0  0  0  0  0  0  0  0  0  0  0  0
  -50.1701   59.4553   64.0584 C   0  0  0  0  0  0  0  0  0  0  0  0
  -50.1694   58.6505   65.3585 C   0  0  0  0  0  0  0  0  0  0  0  0
  -48.7810   58.0649   65.6148 C   0  0  0  0  0  0  0  0  0  0  0  0
  -46.9769   59.8923   66.3089 C   0  0  0  0  0  0  0  0  0  0  0  0
  -48.1061   58.9158   66.6920 C   0  0  0  0  0  0  0  0  0  0  0  0
  -46.4062   59.9622   64.8840 C   0  0  0  0  0  0  0  0  0  0  0  0
  -46.9134   61.2685   64.2559 C   0  0  0  0  0  0  0  0  0  0  0  0
  -46.1679   61.9596   63.0892 C   0  0  0  0  0  0  0  0  0  0  0  0
  -44.8932   61.3555   62.4682 C   0  0  0  0  0  0  0  0  0  0  0  0
  -42.6012   62.1884   61.7745 C   0  0  0  0  0  0  0  0  0  0  0  0
  -43.7278   62.2958   62.8049 C   0  0  0  0  0  0  0  0  0  0  0  0
  -49.1553   60.0163   60.9016 C   0  0  0  0  0  0  0  0  0  0  0  0
  -49.5955   59.2308   59.6435 C   0  0  0  0  0  0  0  0  0  0  0  0
  -46.5513   58.6042   57.6197 C   0  0  0  0  0  0  0  0  0  0  0  0
  -46.4555   57.2067   57.6557 C   0  0  0  0  0  0  0  0  0  0  0  0
  -47.5982   59.2587   58.2797 C   0  0  0  0  0  0  0  0  0  0  0  0
  -47.4181   56.4865   58.3625 C   0  0  0  0  0  0  0  0  0  0  0  0
  -48.4534   57.1450   59.0239 C   0  0  0  0  0  0  0  0  0  0  0  0
  -48.5469   58.5425   59.0182 C   0  0  0  0  0  0  0  0  0  0  0  0
  -47.3980   55.1334   58.4436 O   0  0  0  0  0  0  0  0  0  0  0  0
  -49.3679   56.3994   59.7093 O   0  0  0  0  0  0  0  0  0  0  0  0
  -46.7206   54.6484   58.0147 H   0  0  0  0  0  0  0  0  0  0  0  0
  -49.3031   55.4646   59.7116 H   0  0  0  0  0  0  0  0  0  0  0  0
 12 13  1  0  0  0
  9 10  2  0  0  0
  9  8  1  0  0  0
  6  7  2  0  0  0
  6  8  1  0  0  0
 10 11  1  0  0  0
  7  5  1  0  0  0
 16 17  2  0  0  0
 16 18  1  0  0  0
 17 19  1  0  0  0
 18 21  2  0  0  0
 13 11  1  0  0  0
  5  4  1  0  0  0
  4  3  1  0  0  0
  3  2  1  0  0  0
  2  1  1  0  0  0
  1 14  1  0  0  0
 14 15  1  0  0  0
 15 21  1  0  0  0
 19 20  2  0  0  0
 19 22  1  0  0  0
 20 21  1  0  0  0
 20 23  1  0  0  0
 22 24  1  0  0  0
 23 25  1  0  0  0
M  END
> <minimizedAffinity>
-7.71726

> <CNNscore>
0.5238698721

> <CNNaffinity>
6.7147355080

> <CNN_VS>
3.5176477432

> <CNNaffinity_variance>
0.1856910884

$$$$
/media/chris/experiments/cd1a-new-docking/inputs/ligands/5j1a_ligand.pdb


 25 25  0  0  0  0  0  0  0  0999 V2000
  -50.3130   57.9693   59.6871 C   0  0  0  0  0  0  0  0  0  0  0  0
  -49.3715   56.8564   59.2031 C   0  0  0  0  0  0  0  0  0  0  0  0
  -48.8874   57.1483   57.7894 C   0  0  0  0  0  0  0  0  0  0  0  0
  -47.4908   56.5558   57.5986 C   0  0  0  0  0  0  0  0  0  0  0  0
  -46.4317   57.5222   58.1285 C   0  0  0  0  0  0  0  0  0  0  0  0
  -47.1339   60.0492   58.5727 C   0  0  0  0  0  0  0  0  0  0  0  0
  -46.7626   58.9171   57.5950 C   0  0  0  0  0  0  0  0  0  0  0  0
  -47.3070   59.8028   60.0794 C   0  0  0  0  0  0  0  0  0  0  0  0
  -47.6105   61.1608   60.7290 C   0  0  0  0  0  0  0  0  0  0  0  0
  -46.5550   61.9222   61.5663 C   0  0  0  0  0  0  0  0  0  0  0  0
  -45.1275   61.3761   61.7650 C   0  0  0  0  0  0  0  0  0  0  0  0
  -42.7419   62.2346   61.7787 C   0  0  0  0  0  0  0  0  0  0  0  0
  -44.2107   62.5757   62.0408 C   0  0  0  0  0  0  0  0  0  0  0  0
  -50.7967   57.7722   61.1473 C   0  0  0  0  0  0  0  0  0  0  0  0
  -49.6403   57.7608   62.1749 C   0  0  0  0  0  0  0  0  0  0  0  0
  -51.1682   60.2972   64.4082 C   0  0  0  0  0  0  0  0  0  0  0  0
  -50.4372   60.1273   65.5915 C   0  0  0  0  0  0  0  0  0  0  0  0
  -50.8901   59.5086   63.2853 C   0  0  0  0  0  0  0  0  0  0  0  0
  -49.4348   59.1583   65.6272 C   0  0  0  0  0  0  0  0  0  0  0  0
  -49.1683   58.3712   64.5081 C   0  0  0  0  0  0  0  0  0  0  0  0
  -49.9082   58.5123   63.3272 C   0  0  0  0  0  0  0  0  0  0  0  0
  -48.6813   58.9335   66.7316 O   0  0  0  0  0  0  0  0  0  0  0  0
  -48.1835   57.4304   64.5920 O   0  0  0  0  0  0  0  0  0  0  0  0
  -48.8251   59.4388   67.5075 H   0  0  0  0  0  0  0  0  0  0  0  0
  -47.6900   57.3380   65.3831 H   0  0  0  0  0  0  0  0  0  0  0  0
 12 13  1  0  0  0
  9 10  2  0  0  0
  9  8  1  0  0  0
  6  7  2  0  0  0
  6  8  1  0  0  0
 10 11  1  0  0  0
  7  5  1  0  0  0
 16 17  2  0  0  0
 16 18  1  0  0  0
 17 19  1  0  0  0
 18 21  2  0  0  0
 13 11  1  0  0  0
  5  4  1  0  0  0
  4  3  1  0  0  0
  3  2  1  0  0  0
  2  1  1  0  0  0
  1 14  1  0  0  0
 14 15  1  0  0  0
 15 21  1  0  0  0
 19 20  2  0  0  0
 19 22  1  0  0  0
 20 21  1  0  0  0
 20 23  1  0  0  0
 22 24  1  0  0  0
 23 25  1  0  0  0
M  END
> <minimizedAffinity>
-8.44266

> <CNNscore>
0.5135755539

> <CNNaffinity>
6.5201177597

> <CNN_VS>
3.3485732079

> <CNNaffinity_variance>
0.0487905778

$$$$
/media/chris/experiments/cd1a-new-docking/inputs/ligands/5j1a_ligand.pdb


 25 25  0  0  0  0  0  0  0  0999 V2000
  -48.9826   57.6687   58.3419 C   0  0  0  0  0  0  0  0  0  0  0  0
  -48.8329   56.3071   59.0366 C   0  0  0  0  0  0  0  0  0  0  0  0
  -49.3626   56.3776   60.4623 C   0  0  0  0  0  0  0  0  0  0  0  0
  -50.1386   57.6814   60.6516 C   0  0  0  0  0  0  0  0  0  0  0  0
  -50.1065   58.1050   62.1200 C   0  0  0  0  0  0  0  0  0  0  0  0
  -51.0756   60.0695   63.6291 C   0  0  0  0  0  0  0  0  0  0  0  0
  -50.9277   59.3885   62.2544 C   0  0  0  0  0  0  0  0  0  0  0  0
  -50.5239   59.4383   64.9167 C   0  0  0  0  0  0  0  0  0  0  0  0
  -49.1626   60.0922   65.1952 C   0  0  0  0  0  0  0  0  0  0  0  0
  -47.8527   59.2694   65.2403 C   0  0  0  0  0  0  0  0  0  0  0  0
  -47.8370   57.7517   64.9723 C   0  0  0  0  0  0  0  0  0  0  0  0
  -46.6227   57.0358   67.0797 C   0  0  0  0  0  0  0  0  0  0  0  0
  -46.5332   57.1946   65.5601 C   0  0  0  0  0  0  0  0  0  0  0  0
  -47.8627   57.9570   57.3087 C   0  0  0  0  0  0  0  0  0  0  0  0
  -46.9814   59.1703   57.6893 C   0  0  0  0  0  0  0  0  0  0  0  0
  -47.8879   60.9964   60.7875 C   0  0  0  0  0  0  0  0  0  0  0  0
  -47.1624   60.3003   61.7634 C   0  0  0  0  0  0  0  0  0  0  0  0
  -47.8147   60.6122   59.4432 C   0  0  0  0  0  0  0  0  0  0  0  0
  -46.3732   59.2200   61.3691 C   0  0  0  0  0  0  0  0  0  0  0  0
  -46.3110   58.8380   60.0300 C   0  0  0  0  0  0  0  0  0  0  0  0
  -47.0510   59.5083   59.0476 C   0  0  0  0  0  0  0  0  0  0  0  0
  -45.6396   58.4969   62.2504 O   0  0  0  0  0  0  0  0  0  0  0  0
  -45.5317   57.7701   59.6921 O   0  0  0  0  0  0  0  0  0  0  0  0
  -45.6507   58.7174   63.1611 H   0  0  0  0  0  0  0  0  0  0  0  0
  -45.0377   57.3233   60.3511 H   0  0  0  0  0  0  0  0  0  0  0  0
 12 13  1  0  0  0
  9 10  2  0  0  0
  9  8  1  0  0  0
  6  7  2  0  0  0
  6  8  1  0  0  0
 10 11  1  0  0  0
  7  5  1  0  0  0
 16 17  2  0  0  0
 16 18  1  0  0  0
 17 19  1  0  0  0
 18 21  2  0  0  0
 13 11  1  0  0  0
  5  4  1  0  0  0
  4  3  1  0  0  0
  3  2  1  0  0  0
  2  1  1  0  0  0
  1 14  1  0  0  0
 14 15  1  0  0  0
 15 21  1  0  0  0
 19 20  2  0  0  0
 19 22  1  0  0  0
 20 21  1  0  0  0
 20 23  1  0  0  0
 22 24  1  0  0  0
 23 25  1  0  0  0
M  END
> <minimizedAffinity>
-7.76474

> <CNNscore>
0.4587191641

> <CNNaffinity>
6.6046347618

> <CNN_VS>
3.0296726227

> <CNNaffinity_variance>
0.1571193039

$$$$
/media/chris/experiments/cd1a-new-docking/inputs/ligands/5j1a_ligand.pdb


 25 25  0  0  0  0  0  0  0  0999 V2000
  -47.8131   61.0575   61.2727 C   0  0  0  0  0  0  0  0  0  0  0  0
  -46.3008   61.3153   61.3488 C   0  0  0  0  0  0  0  0  0  0  0  0
  -45.5475   60.0045   61.5289 C   0  0  0  0  0  0  0  0  0  0  0  0
  -45.7819   59.4745   62.9439 C   0  0  0  0  0  0  0  0  0  0  0  0
  -45.8455   60.6347   63.9371 C   0  0  0  0  0  0  0  0  0  0  0  0
  -46.7111   59.8745   66.3348 C   0  0  0  0  0  0  0  0  0  0  0  0
  -45.5587   60.0734   65.3309 C   0  0  0  0  0  0  0  0  0  0  0  0
  -48.1451   60.3367   66.0339 C   0  0  0  0  0  0  0  0  0  0  0  0
  -49.0656   59.1257   66.2446 C   0  0  0  0  0  0  0  0  0  0  0  0
  -49.5773   58.2702   65.0610 C   0  0  0  0  0  0  0  0  0  0  0  0
  -49.1619   58.5649   63.6063 C   0  0  0  0  0  0  0  0  0  0  0  0
  -51.1762   59.8018   62.6891 C   0  0  0  0  0  0  0  0  0  0  0  0
  -50.4249   58.4693   62.7394 C   0  0  0  0  0  0  0  0  0  0  0  0
  -48.3450   60.9502   59.8200 C   0  0  0  0  0  0  0  0  0  0  0  0
  -49.0592   59.6086   59.5311 C   0  0  0  0  0  0  0  0  0  0  0  0
  -46.3856   58.2585   57.3438 C   0  0  0  0  0  0  0  0  0  0  0  0
  -46.6608   56.8847   57.3550 C   0  0  0  0  0  0  0  0  0  0  0  0
  -47.1907   59.1472   58.0663 C   0  0  0  0  0  0  0  0  0  0  0  0
  -47.7458   56.4241   58.1004 C   0  0  0  0  0  0  0  0  0  0  0  0
  -48.5386   57.3135   58.8238 C   0  0  0  0  0  0  0  0  0  0  0  0
  -48.2598   58.6860   58.8427 C   0  0  0  0  0  0  0  0  0  0  0  0
  -48.0801   55.1117   58.1611 O   0  0  0  0  0  0  0  0  0  0  0  0
  -49.5849   56.8163   59.5449 O   0  0  0  0  0  0  0  0  0  0  0  0
  -47.5755   54.4775   57.6909 H   0  0  0  0  0  0  0  0  0  0  0  0
  -49.7694   55.8978   59.5306 H   0  0  0  0  0  0  0  0  0  0  0  0
 12 13  1  0  0  0
  9 10  2  0  0  0
  9  8  1  0  0  0
  6  7  2  0  0  0
  6  8  1  0  0  0
 10 11  1  0  0  0
  7  5  1  0  0  0
 16 17  2  0  0  0
 16 18  1  0  0  0
 17 19  1  0  0  0
 18 21  2  0  0  0
 13 11  1  0  0  0
  5  4  1  0  0  0
  4  3  1  0  0  0
  3  2  1  0  0  0
  2  1  1  0  0  0
  1 14  1  0  0  0
 14 15  1  0  0  0
 15 21  1  0  0  0
 19 20  2  0  0  0
 19 22  1  0  0  0
 20 21  1  0  0  0
 20 23  1  0  0  0
 22 24  1  0  0  0
 23 25  1  0  0  0
M  END
> <minimizedAffinity>
-7.93710

> <CNNscore>
0.4373032749

> <CNNaffinity>
6.7254080772

> <CNN_VS>
2.9410429001

> <CNNaffinity_variance>
0.1836912334

$$$$
/media/chris/experiments/cd1a-new-docking/inputs/ligands/5j1a_ligand.pdb


 25 25  0  0  0  0  0  0  0  0999 V2000
  -45.7109   57.5060   59.0248 C   0  0  0  0  0  0  0  0  0  0  0  0
  -46.4231   58.0196   57.7646 C   0  0  0  0  0  0  0  0  0  0  0  0
  -47.7016   58.7561   58.1404 C   0  0  0  0  0  0  0  0  0  0  0  0
  -48.8949   57.8125   57.9868 C   0  0  0  0  0  0  0  0  0  0  0  0
  -50.0598   58.2910   58.8532 C   0  0  0  0  0  0  0  0  0  0  0  0
  -50.2976   58.0806   61.4943 C   0  0  0  0  0  0  0  0  0  0  0  0
  -50.0907   57.4260   60.1144 C   0  0  0  0  0  0  0  0  0  0  0  0
  -50.3548   59.6055   61.6743 C   0  0  0  0  0  0  0  0  0  0  0  0
  -51.1689   59.8817   62.9468 C   0  0  0  0  0  0  0  0  0  0  0  0
  -50.4948   60.0531   64.3291 C   0  0  0  0  0  0  0  0  0  0  0  0
  -48.9642   59.9918   64.4999 C   0  0  0  0  0  0  0  0  0  0  0  0
  -49.5805   57.9013   65.7955 C   0  0  0  0  0  0  0  0  0  0  0  0
  -48.5945   58.5350   64.8112 C   0  0  0  0  0  0  0  0  0  0  0  0
  -46.4313   57.8997   60.3405 C   0  0  0  0  0  0  0  0  0  0  0  0
  -45.4600   58.3732   61.4477 C   0  0  0  0  0  0  0  0  0  0  0  0
  -46.6843   61.8740   61.4589 C   0  0  0  0  0  0  0  0  0  0  0  0
  -45.5941   62.5663   62.0026 C   0  0  0  0  0  0  0  0  0  0  0  0
  -46.6230   60.4871   61.2785 C   0  0  0  0  0  0  0  0  0  0  0  0
  -44.4544   61.8469   62.3615 C   0  0  0  0  0  0  0  0  0  0  0  0
  -44.4030   60.4650   62.1864 C   0  0  0  0  0  0  0  0  0  0  0  0
  -45.4947   59.7567   61.6685 C   0  0  0  0  0  0  0  0  0  0  0  0
  -43.3573   62.4418   62.8910 O   0  0  0  0  0  0  0  0  0  0  0  0
  -43.2701   59.8022   62.5593 O   0  0  0  0  0  0  0  0  0  0  0  0
  -43.3467   63.3688   63.0268 H   0  0  0  0  0  0  0  0  0  0  0  0
  -42.5412   60.2783   62.9056 H   0  0  0  0  0  0  0  0  0  0  0  0
 12 13  1  0  0  0
  9 10  2  0  0  0
  9  8  1  0  0  0
  6  7  2  0  0  0
  6  8  1  0  0  0
 10 11  1  0  0  0
  7  5  1  0  0  0
 16 17  2  0  0  0
 16 18  1  0  0  0
 17 19  1  0  0  0
 18 21  2  0  0  0
 13 11  1  0  0  0
  5  4  1  0  0  0
  4  3  1  0  0  0
  3  2  1  0  0  0
  2  1  1  0  0  0
  1 14  1  0  0  0
 14 15  1  0  0  0
 15 21  1  0  0  0
 19 20  2  0  0  0
 19 22  1  0  0  0
 20 21  1  0  0  0
 20 23  1  0  0  0
 22 24  1  0  0  0
 23 25  1  0  0  0
M  END
> <minimizedAffinity>
-8.02214

> <CNNscore>
0.3993740082

> <CNNaffinity>
6.3081622124

> <CNN_VS>
2.5193159580

> <CNNaffinity_variance>
0.1723947227

$$$$
/media/chris/experiments/cd1a-new-docking/inputs/ligands/5j1a_ligand.pdb


 25 25  0  0  0  0  0  0  0  0999 V2000
  -49.6625   60.0148   63.4253 C   0  0  0  0  0  0  0  0  0  0  0  0
  -50.0149   59.8479   61.9396 C   0  0  0  0  0  0  0  0  0  0  0  0
  -50.7063   58.5118   61.7051 C   0  0  0  0  0  0  0  0  0  0  0  0
  -49.6561   57.4437   61.3985 C   0  0  0  0  0  0  0  0  0  0  0  0
  -49.8425   56.9142   59.9768 C   0  0  0  0  0  0  0  0  0  0  0  0
  -48.0437   55.6992   58.4393 C   0  0  0  0  0  0  0  0  0  0  0  0
  -48.8313   55.7869   59.7612 C   0  0  0  0  0  0  0  0  0  0  0  0
  -48.3222   56.6422   57.2587 C   0  0  0  0  0  0  0  0  0  0  0  0
  -47.0023   57.3520   56.9240 C   0  0  0  0  0  0  0  0  0  0  0  0
  -46.6115   58.7022   57.5712 C   0  0  0  0  0  0  0  0  0  0  0  0
  -47.5101   59.3926   58.6160 C   0  0  0  0  0  0  0  0  0  0  0  0
  -45.8163   58.1916   60.0711 C   0  0  0  0  0  0  0  0  0  0  0  0
  -46.7443   59.4023   59.9461 C   0  0  0  0  0  0  0  0  0  0  0  0
  -50.8919   59.9038   64.3639 C   0  0  0  0  0  0  0  0  0  0  0  0
  -50.5073   59.7466   65.8542 C   0  0  0  0  0  0  0  0  0  0  0  0
  -48.2831   56.7799   65.9391 C   0  0  0  0  0  0  0  0  0  0  0  0
  -47.1211   57.2989   66.5254 C   0  0  0  0  0  0  0  0  0  0  0  0
  -49.3963   57.6020   65.7268 C   0  0  0  0  0  0  0  0  0  0  0  0
  -47.0965   58.6456   66.8873 C   0  0  0  0  0  0  0  0  0  0  0  0
  -48.2056   59.4604   66.6660 C   0  0  0  0  0  0  0  0  0  0  0  0
  -49.3643   58.9615   66.0573 C   0  0  0  0  0  0  0  0  0  0  0  0
  -46.0129   59.2233   67.4615 O   0  0  0  0  0  0  0  0  0  0  0  0
  -48.1329   60.7736   67.0293 O   0  0  0  0  0  0  0  0  0  0  0  0
  -45.2443   58.7142   67.6293 H   0  0  0  0  0  0  0  0  0  0  0  0
  -47.3567   61.1049   67.4362 H   0  0  0  0  0  0  0  0  0  0  0  0
 12 13  1  0  0  0
  9 10  2  0  0  0
  9  8  1  0  0  0
  6  7  2  0  0  0
  6  8  1  0  0  0
 10 11  1  0  0  0
  7  5  1  0  0  0
 16 17  2  0  0  0
 16 18  1  0  0  0
 17 19  1  0  0  0
 18 21  2  0  0  0
 13 11  1  0  0  0
  5  4  1  0  0  0
  4  3  1  0  0  0
  3  2  1  0  0  0
  2  1  1  0  0  0
  1 14  1  0  0  0
 14 15  1  0  0  0
 15 21  1  0  0  0
 19 20  2  0  0  0
 19 22  1  0  0  0
 20 21  1  0  0  0
 20 23  1  0  0  0
 22 24  1  0  0  0
 23 25  1  0  0  0
M  END
> <minimizedAffinity>
-8.41931

> <CNNscore>
0.3623336554

> <CNNaffinity>
6.1913170815

> <CNN_VS>
2.2433226109

> <CNNaffinity_variance>
0.3347318470

$$$$
/media/chris/experiments/cd1a-new-docking/inputs/ligands/5j1a_ligand.pdb


 25 25  0  0  0  0  0  0  0  0999 V2000
  -48.8938   58.9361   63.5009 C   0  0  0  0  0  0  0  0  0  0  0  0
  -49.3924   59.7417   62.2920 C   0  0  0  0  0  0  0  0  0  0  0  0
  -50.2024   58.8521   61.3589 C   0  0  0  0  0  0  0  0  0  0  0  0
  -49.7540   57.3999   61.5258 C   0  0  0  0  0  0  0  0  0  0  0  0
  -49.6467   56.7214   60.1603 C   0  0  0  0  0  0  0  0  0  0  0  0
  -49.3141   57.6738   57.6989 C   0  0  0  0  0  0  0  0  0  0  0  0
  -49.9673   57.7680   59.0917 C   0  0  0  0  0  0  0  0  0  0  0  0
  -48.2420   56.6238   57.3691 C   0  0  0  0  0  0  0  0  0  0  0  0
  -46.9619   57.3849   56.9943 C   0  0  0  0  0  0  0  0  0  0  0  0
  -45.9435   57.8504   58.0624 C   0  0  0  0  0  0  0  0  0  0  0  0
  -46.1398   57.5441   59.5601 C   0  0  0  0  0  0  0  0  0  0  0  0
  -46.9585   59.9434   59.5194 C   0  0  0  0  0  0  0  0  0  0  0  0
  -46.1760   58.8868   60.3029 C   0  0  0  0  0  0  0  0  0  0  0  0
  -47.4001   59.1883   63.8328 C   0  0  0  0  0  0  0  0  0  0  0  0
  -47.1064   60.6512   64.2416 C   0  0  0  0  0  0  0  0  0  0  0  0
  -45.2698   62.5971   61.6733 C   0  0  0  0  0  0  0  0  0  0  0  0
  -43.9337   62.3447   62.0113 C   0  0  0  0  0  0  0  0  0  0  0  0
  -46.3082   62.0265   62.4191 C   0  0  0  0  0  0  0  0  0  0  0  0
  -43.6623   61.5204   63.1032 C   0  0  0  0  0  0  0  0  0  0  0  0
  -44.7010   60.9619   63.8462 C   0  0  0  0  0  0  0  0  0  0  0  0
  -46.0409   61.2263   63.5357 C   0  0  0  0  0  0  0  0  0  0  0  0
  -42.3980   61.2252   63.4934 O   0  0  0  0  0  0  0  0  0  0  0  0
  -44.3876   60.1680   64.9108 O   0  0  0  0  0  0  0  0  0  0  0  0
  -41.6682   61.5784   63.0236 H   0  0  0  0  0  0  0  0  0  0  0  0
  -43.4904   59.9926   65.1165 H   0  0  0  0  0  0  0  0  0  0  0  0
 12 13  1  0  0  0
  9 10  2  0  0  0
  9  8  1  0  0  0
  6  7  2  0  0  0
  6  8  1  0  0  0
 10 11  1  0  0  0
  7  5  1  0  0  0
 16 17  2  0  0  0
 16 18  1  0  0  0
 17 19  1  0  0  0
 18 21  2  0  0  0
 13 11  1  0  0  0
  5  4  1  0  0  0
  4  3  1  0  0  0
  3  2  1  0  0  0
  2  1  1  0  0  0
  1 14  1  0  0  0
 14 15  1  0  0  0
 15 21  1  0  0  0
 19 20  2  0  0  0
 19 22  1  0  0  0
 20 21  1  0  0  0
 20 23  1  0  0  0
 22 24  1  0  0  0
 23 25  1  0  0  0
M  END
> <minimizedAffinity>
-7.53230

> <CNNscore>
0.3592928052

> <CNNaffinity>
6.0922670364

> <CNN_VS>
2.1889076233

> <CNNaffinity_variance>
0.1400106847

$$$$
/media/chris/experiments/cd1a-new-docking/inputs/ligands/5j1a_ligand.pdb


 25 25  0  0  0  0  0  0  0  0999 V2000
  -49.9207   59.6289   64.1897 C   0  0  0  0  0  0  0  0  0  0  0  0
  -51.0941   59.7013   63.2013 C   0  0  0  0  0  0  0  0  0  0  0  0
  -50.6567   59.2268   61.8224 C   0  0  0  0  0  0  0  0  0  0  0  0
  -49.8030   57.9664   61.9664 C   0  0  0  0  0  0  0  0  0  0  0  0
  -50.0393   57.0318   60.7801 C   0  0  0  0  0  0  0  0  0  0  0  0
  -49.6119   57.6895   58.2383 C   0  0  0  0  0  0  0  0  0  0  0  0
  -50.3723   57.8962   59.5629 C   0  0  0  0  0  0  0  0  0  0  0  0
  -48.4285   56.7168   58.1194 C   0  0  0  0  0  0  0  0  0  0  0  0
  -47.2776   57.4825   57.4505 C   0  0  0  0  0  0  0  0  0  0  0  0
  -46.2282   58.2669   58.2739 C   0  0  0  0  0  0  0  0  0  0  0  0
  -46.2591   58.2937   59.8146 C   0  0  0  0  0  0  0  0  0  0  0  0
  -47.6474   60.4151   59.7961 C   0  0  0  0  0  0  0  0  0  0  0  0
  -46.3377   59.7642   60.2473 C   0  0  0  0  0  0  0  0  0  0  0  0
  -50.3403   59.1613   65.6075 C   0  0  0  0  0  0  0  0  0  0  0  0
  -49.6124   57.8748   66.0640 C   0  0  0  0  0  0  0  0  0  0  0  0
  -46.4005   59.5884   66.7731 C   0  0  0  0  0  0  0  0  0  0  0  0
  -45.4862   58.5272   66.7399 C   0  0  0  0  0  0  0  0  0  0  0  0
  -47.7621   59.3566   66.5441 C   0  0  0  0  0  0  0  0  0  0  0  0
  -45.9599   57.2417   66.4788 C   0  0  0  0  0  0  0  0  0  0  0  0
  -47.3179   57.0167   66.2594 C   0  0  0  0  0  0  0  0  0  0  0  0
  -48.2466   58.0638   66.3154 C   0  0  0  0  0  0  0  0  0  0  0  0
  -45.1408   56.1627   66.4269 O   0  0  0  0  0  0  0  0  0  0  0  0
  -47.7366   55.7412   66.0155 O   0  0  0  0  0  0  0  0  0  0  0  0
  -44.2203   56.2662   66.5682 H   0  0  0  0  0  0  0  0  0  0  0  0
  -47.1134   55.0424   65.9786 H   0  0  0  0  0  0  0  0  0  0  0  0
 12 13  1  0  0  0
  9 10  2  0  0  0
  9  8  1  0  0  0
  6  7  2  0  0  0
  6  8  1  0  0  0
 10 11  1  0  0  0
  7  5  1  0  0  0
 16 17  2  0  0  0
 16 18  1  0  0  0
 17 19  1  0  0  0
 18 21  2  0  0  0
 13 11  1  0  0  0
  5  4  1  0  0  0
  4  3  1  0  0  0
  3  2  1  0  0  0
  2  1  1  0  0  0
  1 14  1  0  0  0
 14 15  1  0  0  0
 15 21  1  0  0  0
 19 20  2  0  0  0
 19 22  1  0  0  0
 20 21  1  0  0  0
 20 23  1  0  0  0
 22 24  1  0  0  0
 23 25  1  0  0  0
M  END
> <minimizedAffinity>
-8.18521

> <CNNscore>
0.3375985622

> <CNNaffinity>
6.2943673134

> <CNN_VS>
2.1249692440

> <CNNaffinity_variance>
0.3923265636

$$$$
