/media/chris/experiments/cd1a-new-docking/inputs/ligands/5j1a_ligand.pdb


 25 25  0  0  0  0  0  0  0  0999 V2000
  -48.2414   59.0800   64.2290 C   0  0  0  0  0  0  0  0  0  0  0  0
  -48.9005   58.2699   63.1027 C   0  0  0  0  0  0  0  0  0  0  0  0
  -50.3470   58.7052   62.9123 C   0  0  0  0  0  0  0  0  0  0  0  0
  -50.8691   58.1635   61.5811 C   0  0  0  0  0  0  0  0  0  0  0  0
  -49.7004   57.7857   60.6714 C   0  0  0  0  0  0  0  0  0  0  0  0
  -49.4100   57.3102   58.0703 C   0  0  0  0  0  0  0  0  0  0  0  0
  -50.1366   58.0269   59.2252 C   0  0  0  0  0  0  0  0  0  0  0  0
  -48.1652   56.4404   58.3036 C   0  0  0  0  0  0  0  0  0  0  0  0
  -47.0431   57.0084   57.4224 C   0  0  0  0  0  0  0  0  0  0  0  0
  -46.2350   58.2626   57.8328 C   0  0  0  0  0  0  0  0  0  0  0  0
  -46.4878   58.9914   59.1671 C   0  0  0  0  0  0  0  0  0  0  0  0
  -47.8947   60.8833   60.0996 C   0  0  0  0  0  0  0  0  0  0  0  0
  -47.2494   60.2849   58.8473 C   0  0  0  0  0  0  0  0  0  0  0  0
  -47.3639   60.2494   63.7116 C   0  0  0  0  0  0  0  0  0  0  0  0
  -45.9903   60.3380   64.4178 C   0  0  0  0  0  0  0  0  0  0  0  0
  -44.4728   62.4939   61.8092 C   0  0  0  0  0  0  0  0  0  0  0  0
  -43.1027   62.3373   62.0572 C   0  0  0  0  0  0  0  0  0  0  0  0
  -45.4156   61.8229   62.5972 C   0  0  0  0  0  0  0  0  0  0  0  0
  -42.7011   61.5059   63.1026 C   0  0  0  0  0  0  0  0  0  0  0  0
  -43.6452   60.8469   63.8881 C   0  0  0  0  0  0  0  0  0  0  0  0
  -45.0184   61.0145   63.6683 C   0  0  0  0  0  0  0  0  0  0  0  0
  -41.3960   61.2995   63.4055 O   0  0  0  0  0  0  0  0  0  0  0  0
  -43.2059   60.0499   64.9047 O   0  0  0  0  0  0  0  0  0  0  0  0
  -40.7262   61.7217   62.9044 H   0  0  0  0  0  0  0  0  0  0  0  0
  -42.2868   59.9394   65.0498 H   0  0  0  0  0  0  0  0  0  0  0  0
 12 13  1  0  0  0
  9 10  2  0  0  0
  9  8  1  0  0  0
  6  7  2  0  0  0
  6  8  1  0  0  0
 10 11  1  0  0  0
  7  5  1  0  0  0
 16 17  2  0  0  0
 16 18  1  0  0  0
 17 19  1  0  0  0
 18 21  2  0  0  0
 13 11  1  0  0  0
  5  4  1  0  0  0
  4  3  1  0  0  0
  3  2  1  0  0  0
  2  1  1  0  0  0
  1 14  1  0  0  0
 14 15  1  0  0  0
 15 21  1  0  0  0
 19 20  2  0  0  0
 19 22  1  0  0  0
 20 21  1  0  0  0
 20 23  1  0  0  0
 22 24  1  0  0  0
 23 25  1  0  0  0
M  END
> <minimizedAffinity>
-7.56588

> <CNNscore>
0.6646178365

> <CNNaffinity>
6.4396185875

> <CNN_VS>
4.2798852921

> <CNNaffinity_variance>
0.1518133581

$$$$
/media/chris/experiments/cd1a-new-docking/inputs/ligands/5j1a_ligand.pdb


 25 25  0  0  0  0  0  0  0  0999 V2000
  -46.6694   59.2535   58.5103 C   0  0  0  0  0  0  0  0  0  0  0  0
  -47.1038   58.4737   57.2603 C   0  0  0  0  0  0  0  0  0  0  0  0
  -46.2724   57.2071   57.1094 C   0  0  0  0  0  0  0  0  0  0  0  0
  -47.2029   55.9974   57.0145 C   0  0  0  0  0  0  0  0  0  0  0  0
  -48.5334   56.3010   57.7030 C   0  0  0  0  0  0  0  0  0  0  0  0
  -49.3611   56.4591   60.2261 C   0  0  0  0  0  0  0  0  0  0  0  0
  -48.4131   55.8670   59.1649 C   0  0  0  0  0  0  0  0  0  0  0  0
  -50.3613   57.5772   59.8945 C   0  0  0  0  0  0  0  0  0  0  0  0
  -49.6503   58.9136   60.1531 C   0  0  0  0  0  0  0  0  0  0  0  0
  -49.9395   59.7648   61.4126 C   0  0  0  0  0  0  0  0  0  0  0  0
  -50.9322   59.3009   62.4964 C   0  0  0  0  0  0  0  0  0  0  0  0
  -50.3348   59.4736   64.9544 C   0  0  0  0  0  0  0  0  0  0  0  0
  -50.1104   58.7072   63.6486 C   0  0  0  0  0  0  0  0  0  0  0  0
  -45.8969   58.3857   59.5375 C   0  0  0  0  0  0  0  0  0  0  0  0
  -46.2226   58.7470   61.0061 C   0  0  0  0  0  0  0  0  0  0  0  0
  -45.6286   62.3430   61.6923 C   0  0  0  0  0  0  0  0  0  0  0  0
  -44.3364   62.3306   62.2339 C   0  0  0  0  0  0  0  0  0  0  0  0
  -46.2376   61.1491   61.2877 C   0  0  0  0  0  0  0  0  0  0  0  0
  -43.6754   61.1094   62.3638 C   0  0  0  0  0  0  0  0  0  0  0  0
  -44.2906   59.9236   61.9662 C   0  0  0  0  0  0  0  0  0  0  0  0
  -45.5917   59.9180   61.4474 C   0  0  0  0  0  0  0  0  0  0  0  0
  -42.4237   61.0123   62.8752 O   0  0  0  0  0  0  0  0  0  0  0  0
  -43.6085   58.7518   62.1193 O   0  0  0  0  0  0  0  0  0  0  0  0
  -41.9711   61.7833   63.1556 H   0  0  0  0  0  0  0  0  0  0  0  0
  -42.7382   58.7582   62.4667 H   0  0  0  0  0  0  0  0  0  0  0  0
 12 13  1  0  0  0
  9 10  2  0  0  0
  9  8  1  0  0  0
  6  7  2  0  0  0
  6  8  1  0  0  0
 10 11  1  0  0  0
  7  5  1  0  0  0
 16 17  2  0  0  0
 16 18  1  0  0  0
 17 19  1  0  0  0
 18 21  2  0  0  0
 13 11  1  0  0  0
  5  4  1  0  0  0
  4  3  1  0  0  0
  3  2  1  0  0  0
  2  1  1  0  0  0
  1 14  1  0  0  0
 14 15  1  0  0  0
 15 21  1  0  0  0
 19 20  2  0  0  0
 19 22  1  0  0  0
 20 21  1  0  0  0
 20 23  1  0  0  0
 22 24  1  0  0  0
 23 25  1  0  0  0
M  END
> <minimizedAffinity>
-7.94455

> <CNNscore>
0.6064029932

> <CNNaffinity>
6.5667085648

> <CNN_VS>
3.9820716381

> <CNNaffinity_variance>
0.0315958187

$$$$
/media/chris/experiments/cd1a-new-docking/inputs/ligands/5j1a_ligand.pdb


 25 25  0  0  0  0  0  0  0  0999 V2000
  -47.5860   55.9515   59.0673 C   0  0  0  0  0  0  0  0  0  0  0  0
  -49.0145   55.8641   59.6248 C   0  0  0  0  0  0  0  0  0  0  0  0
  -49.6856   57.2301   59.5817 C   0  0  0  0  0  0  0  0  0  0  0  0
  -50.5296   57.4211   60.8423 C   0  0  0  0  0  0  0  0  0  0  0  0
  -49.8558   58.4221   61.7807 C   0  0  0  0  0  0  0  0  0  0  0  0
  -51.1278   60.1898   63.3082 C   0  0  0  0  0  0  0  0  0  0  0  0
  -50.7802   59.6337   61.9135 C   0  0  0  0  0  0  0  0  0  0  0  0
  -50.6745   59.4940   64.6009 C   0  0  0  0  0  0  0  0  0  0  0  0
  -49.4114   60.2192   65.0875 C   0  0  0  0  0  0  0  0  0  0  0  0
  -48.0329   59.5180   65.1386 C   0  0  0  0  0  0  0  0  0  0  0  0
  -47.8440   58.0621   64.6695 C   0  0  0  0  0  0  0  0  0  0  0  0
  -47.0487   56.1866   66.1790 C   0  0  0  0  0  0  0  0  0  0  0  0
  -48.1933   57.1490   65.8527 C   0  0  0  0  0  0  0  0  0  0  0  0
  -47.4409   56.9710   57.9077 C   0  0  0  0  0  0  0  0  0  0  0  0
  -46.2873   57.9788   58.1244 C   0  0  0  0  0  0  0  0  0  0  0  0
  -47.7122   61.0867   59.5617 C   0  0  0  0  0  0  0  0  0  0  0  0
  -47.1658   61.0927   60.8519 C   0  0  0  0  0  0  0  0  0  0  0  0
  -47.4091   60.0510   58.6699 C   0  0  0  0  0  0  0  0  0  0  0  0
  -46.3211   60.0483   61.2274 C   0  0  0  0  0  0  0  0  0  0  0  0
  -46.0297   59.0162   60.3372 C   0  0  0  0  0  0  0  0  0  0  0  0
  -46.5894   58.9836   59.0535 C   0  0  0  0  0  0  0  0  0  0  0  0
  -45.7505   59.9819   62.4553 O   0  0  0  0  0  0  0  0  0  0  0  0
  -45.2045   58.0115   60.7510 O   0  0  0  0  0  0  0  0  0  0  0  0
  -45.9178   60.6537   63.0866 H   0  0  0  0  0  0  0  0  0  0  0  0
  -44.8314   58.0355   61.6103 H   0  0  0  0  0  0  0  0  0  0  0  0
 12 13  1  0  0  0
  9 10  2  0  0  0
  9  8  1  0  0  0
  6  7  2  0  0  0
  6  8  1  0  0  0
 10 11  1  0  0  0
  7  5  1  0  0  0
 16 17  2  0  0  0
 16 18  1  0  0  0
 17 19  1  0  0  0
 18 21  2  0  0  0
 13 11  1  0  0  0
  5  4  1  0  0  0
  4  3  1  0  0  0
  3  2  1  0  0  0
  2  1  1  0  0  0
  1 14  1  0  0  0
 14 15  1  0  0  0
 15 21  1  0  0  0
 19 20  2  0  0  0
 19 22  1  0  0  0
 20 21  1  0  0  0
 20 23  1  0  0  0
 22 24  1  0  0  0
 23 25  1  0  0  0
M  END
> <minimizedAffinity>
-7.83406

> <CNNscore>
0.5778071880

> <CNNaffinity>
6.6902360916

> <CNN_VS>
3.8656663895

> <CNNaffinity_variance>
0.1776496768

$$$$
/media/chris/experiments/cd1a-new-docking/inputs/ligands/5j1a_ligand.pdb


 25 25  0  0  0  0  0  0  0  0999 V2000
  -51.0721   59.7587   63.3874 C   0  0  0  0  0  0  0  0  0  0  0  0
  -50.2147   59.3770   62.1716 C   0  0  0  0  0  0  0  0  0  0  0  0
  -50.2089   57.8667   61.9794 C   0  0  0  0  0  0  0  0  0  0  0  0
  -50.9959   57.5125   60.7171 C   0  0  0  0  0  0  0  0  0  0  0  0
  -50.0442   57.3449   59.5328 C   0  0  0  0  0  0  0  0  0  0  0  0
  -48.1267   55.6672   58.7680 C   0  0  0  0  0  0  0  0  0  0  0  0
  -49.1369   56.1491   59.8276 C   0  0  0  0  0  0  0  0  0  0  0  0
  -48.0735   56.2714   57.3564 C   0  0  0  0  0  0  0  0  0  0  0  0
  -46.6594   56.8360   57.1575 C   0  0  0  0  0  0  0  0  0  0  0  0
  -46.2963   58.2899   57.5436 C   0  0  0  0  0  0  0  0  0  0  0  0
  -47.3258   59.2420   58.1830 C   0  0  0  0  0  0  0  0  0  0  0  0
  -46.5548   58.5859   60.5076 C   0  0  0  0  0  0  0  0  0  0  0  0
  -46.7342   59.7338   59.5110 C   0  0  0  0  0  0  0  0  0  0  0  0
  -50.2603   59.8550   64.7052 C   0  0  0  0  0  0  0  0  0  0  0  0
  -48.7377   59.9998   64.4726 C   0  0  0  0  0  0  0  0  0  0  0  0
  -47.8510   56.6994   65.9135 C   0  0  0  0  0  0  0  0  0  0  0  0
  -46.5388   56.9133   66.3557 C   0  0  0  0  0  0  0  0  0  0  0  0
  -48.5664   57.7319   65.2953 C   0  0  0  0  0  0  0  0  0  0  0  0
  -45.9628   58.1690   66.1642 C   0  0  0  0  0  0  0  0  0  0  0  0
  -46.6780   59.1902   65.5410 C   0  0  0  0  0  0  0  0  0  0  0  0
  -47.9811   58.9830   65.0706 C   0  0  0  0  0  0  0  0  0  0  0  0
  -44.7004   58.4574   66.5651 O   0  0  0  0  0  0  0  0  0  0  0  0
  -46.0711   60.4000   65.3681 O   0  0  0  0  0  0  0  0  0  0  0  0
  -44.1820   57.8018   66.9887 H   0  0  0  0  0  0  0  0  0  0  0  0
  -45.1993   60.5362   65.6837 H   0  0  0  0  0  0  0  0  0  0  0  0
 12 13  1  0  0  0
  9 10  2  0  0  0
  9  8  1  0  0  0
  6  7  2  0  0  0
  6  8  1  0  0  0
 10 11  1  0  0  0
  7  5  1  0  0  0
 16 17  2  0  0  0
 16 18  1  0  0  0
 17 19  1  0  0  0
 18 21  2  0  0  0
 13 11  1  0  0  0
  5  4  1  0  0  0
  4  3  1  0  0  0
  3  2  1  0  0  0
  2  1  1  0  0  0
  1 14  1  0  0  0
 14 15  1  0  0  0
 15 21  1  0  0  0
 19 20  2  0  0  0
 19 22  1  0  0  0
 20 21  1  0  0  0
 20 23  1  0  0  0
 22 24  1  0  0  0
 23 25  1  0  0  0
M  END
> <minimizedAffinity>
-8.12780

> <CNNscore>
0.4886184335

> <CNNaffinity>
6.4785223007

> <CNN_VS>
3.1655254364

> <CNNaffinity_variance>
0.3007685244

$$$$
/media/chris/experiments/cd1a-new-docking/inputs/ligands/5j1a_ligand.pdb


 25 25  0  0  0  0  0  0  0  0999 V2000
  -50.2114   59.4293   61.9120 C   0  0  0  0  0  0  0  0  0  0  0  0
  -50.0596   58.3822   63.0253 C   0  0  0  0  0  0  0  0  0  0  0  0
  -50.1608   59.0433   64.3931 C   0  0  0  0  0  0  0  0  0  0  0  0
  -49.5163   58.1381   65.4434 C   0  0  0  0  0  0  0  0  0  0  0  0
  -48.2617   57.4781   64.8716 C   0  0  0  0  0  0  0  0  0  0  0  0
  -46.0971   56.5392   66.1000 C   0  0  0  0  0  0  0  0  0  0  0  0
  -47.6307   56.6339   65.9803 C   0  0  0  0  0  0  0  0  0  0  0  0
  -45.1566   57.1702   65.0618 C   0  0  0  0  0  0  0  0  0  0  0  0
  -44.2628   58.1712   65.8085 C   0  0  0  0  0  0  0  0  0  0  0  0
  -44.6859   59.6439   66.0249 C   0  0  0  0  0  0  0  0  0  0  0  0
  -46.0450   60.1794   65.5336 C   0  0  0  0  0  0  0  0  0  0  0  0
  -46.8104   60.5180   63.1403 C   0  0  0  0  0  0  0  0  0  0  0  0
  -45.7966   60.9219   64.2136 C   0  0  0  0  0  0  0  0  0  0  0  0
  -49.5996   58.9803   60.5595 C   0  0  0  0  0  0  0  0  0  0  0  0
  -48.3061   58.1477   60.7234 C   0  0  0  0  0  0  0  0  0  0  0  0
  -46.3309   58.2286   57.5853 C   0  0  0  0  0  0  0  0  0  0  0  0
  -46.6591   56.9995   56.9982 C   0  0  0  0  0  0  0  0  0  0  0  0
  -46.8868   58.5953   58.8167 C   0  0  0  0  0  0  0  0  0  0  0  0
  -47.5440   56.1527   57.6652 C   0  0  0  0  0  0  0  0  0  0  0  0
  -48.0879   56.5206   58.8947 C   0  0  0  0  0  0  0  0  0  0  0  0
  -47.7486   57.7345   59.5058 C   0  0  0  0  0  0  0  0  0  0  0  0
  -47.9142   54.9489   57.1637 O   0  0  0  0  0  0  0  0  0  0  0  0
  -48.9431   55.6566   59.5143 O   0  0  0  0  0  0  0  0  0  0  0  0
  -47.5738   54.6598   56.3400 H   0  0  0  0  0  0  0  0  0  0  0  0
  -49.1685   54.8452   59.1035 H   0  0  0  0  0  0  0  0  0  0  0  0
 12 13  1  0  0  0
  9 10  2  0  0  0
  9  8  1  0  0  0
  6  7  2  0  0  0
  6  8  1  0  0  0
 10 11  1  0  0  0
  7  5  1  0  0  0
 16 17  2  0  0  0
 16 18  1  0  0  0
 17 19  1  0  0  0
 18 21  2  0  0  0
 13 11  1  0  0  0
  5  4  1  0  0  0
  4  3  1  0  0  0
  3  2  1  0  0  0
  2  1  1  0  0  0
  1 14  1  0  0  0
 14 15  1  0  0  0
 15 21  1  0  0  0
 19 20  2  0  0  0
 19 22  1  0  0  0
 20 21  1  0  0  0
 20 23  1  0  0  0
 22 24  1  0  0  0
 23 25  1  0  0  0
M  END
> <minimizedAffinity>
-7.68981

> <CNNscore>
0.4852539897

> <CNNaffinity>
6.9686064720

> <CNN_VS>
3.3815441132

> <CNNaffinity_variance>
0.1362460554

$$$$
/media/chris/experiments/cd1a-new-docking/inputs/ligands/5j1a_ligand.pdb


 25 25  0  0  0  0  0  0  0  0999 V2000
  -48.0333   58.2802   64.2954 C   0  0  0  0  0  0  0  0  0  0  0  0
  -49.5646   58.2290   64.1887 C   0  0  0  0  0  0  0  0  0  0  0  0
  -50.1638   59.5954   64.4922 C   0  0  0  0  0  0  0  0  0  0  0  0
  -51.1443   59.9775   63.3829 C   0  0  0  0  0  0  0  0  0  0  0  0
  -50.7528   59.2911   62.0744 C   0  0  0  0  0  0  0  0  0  0  0  0
  -49.1502   59.8185   60.0178 C   0  0  0  0  0  0  0  0  0  0  0  0
  -49.9631   60.2980   61.2363 C   0  0  0  0  0  0  0  0  0  0  0  0
  -48.9984   58.3291   59.6725 C   0  0  0  0  0  0  0  0  0  0  0  0
  -47.6271   57.8792   60.1973 C   0  0  0  0  0  0  0  0  0  0  0  0
  -46.3592   57.9142   59.3107 C   0  0  0  0  0  0  0  0  0  0  0  0
  -46.3955   58.4368   57.8613 C   0  0  0  0  0  0  0  0  0  0  0  0
  -47.9078   57.2030   56.2429 C   0  0  0  0  0  0  0  0  0  0  0  0
  -46.5441   57.2201   56.9376 C   0  0  0  0  0  0  0  0  0  0  0  0
  -47.4013   59.4523   63.5005 C   0  0  0  0  0  0  0  0  0  0  0  0
  -46.5075   60.3663   64.3718 C   0  0  0  0  0  0  0  0  0  0  0  0
  -44.9967   62.5390   61.7734 C   0  0  0  0  0  0  0  0  0  0  0  0
  -43.6291   62.4338   62.0593 C   0  0  0  0  0  0  0  0  0  0  0  0
  -45.9363   61.8459   62.5459 C   0  0  0  0  0  0  0  0  0  0  0  0
  -43.2269   61.6311   63.1266 C   0  0  0  0  0  0  0  0  0  0  0  0
  -44.1682   60.9500   63.8964 C   0  0  0  0  0  0  0  0  0  0  0  0
  -45.5400   61.0664   63.6384 C   0  0  0  0  0  0  0  0  0  0  0  0
  -41.9239   61.4746   63.4664 O   0  0  0  0  0  0  0  0  0  0  0  0
  -43.7288   60.1825   64.9355 O   0  0  0  0  0  0  0  0  0  0  0  0
  -41.2561   61.9133   62.9770 H   0  0  0  0  0  0  0  0  0  0  0  0
  -42.8105   60.1062   65.1061 H   0  0  0  0  0  0  0  0  0  0  0  0
 12 13  1  0  0  0
  9 10  2  0  0  0
  9  8  1  0  0  0
  6  7  2  0  0  0
  6  8  1  0  0  0
 10 11  1  0  0  0
  7  5  1  0  0  0
 16 17  2  0  0  0
 16 18  1  0  0  0
 17 19  1  0  0  0
 18 21  2  0  0  0
 13 11  1  0  0  0
  5  4  1  0  0  0
  4  3  1  0  0  0
  3  2  1  0  0  0
  2  1  1  0  0  0
  1 14  1  0  0  0
 14 15  1  0  0  0
 15 21  1  0  0  0
 19 20  2  0  0  0
 19 22  1  0  0  0
 20 21  1  0  0  0
 20 23  1  0  0  0
 22 24  1  0  0  0
 23 25  1  0  0  0
M  END
> <minimizedAffinity>
-7.91450

> <CNNscore>
0.4605095088

> <CNNaffinity>
6.2432689667

> <CNN_VS>
2.8750846386

> <CNNaffinity_variance>
0.1514286548

$$$$
/media/chris/experiments/cd1a-new-docking/inputs/ligands/5j1a_ligand.pdb


 25 25  0  0  0  0  0  0  0  0999 V2000
  -42.6658   62.0004   62.5781 C   0  0  0  0  0  0  0  0  0  0  0  0
  -43.9475   62.2216   61.7611 C   0  0  0  0  0  0  0  0  0  0  0  0
  -44.7755   60.9447   61.7164 C   0  0  0  0  0  0  0  0  0  0  0  0
  -46.0994   61.2228   61.0036 C   0  0  0  0  0  0  0  0  0  0  0  0
  -46.9675   59.9647   60.9952 C   0  0  0  0  0  0  0  0  0  0  0  0
  -46.0887   58.3931   59.0372 C   0  0  0  0  0  0  0  0  0  0  0  0
  -46.0965   58.7988   60.5240 C   0  0  0  0  0  0  0  0  0  0  0  0
  -47.0266   59.0433   58.0085 C   0  0  0  0  0  0  0  0  0  0  0  0
  -47.8380   57.9140   57.3569 C   0  0  0  0  0  0  0  0  0  0  0  0
  -49.2429   57.5148   57.8682 C   0  0  0  0  0  0  0  0  0  0  0  0
  -49.9216   58.2528   59.0387 C   0  0  0  0  0  0  0  0  0  0  0  0
  -49.3331   55.9915   60.0229 C   0  0  0  0  0  0  0  0  0  0  0  0
  -49.6100   57.4673   60.3199 C   0  0  0  0  0  0  0  0  0  0  0  0
  -42.0078   60.6189   62.3258 C   0  0  0  0  0  0  0  0  0  0  0  0
  -40.6768   60.7129   61.5429 C   0  0  0  0  0  0  0  0  0  0  0  0
  -39.9161   57.0999   61.8935 C   0  0  0  0  0  0  0  0  0  0  0  0
  -38.5694   57.0434   61.5109 C   0  0  0  0  0  0  0  0  0  0  0  0
  -40.5984   58.3224   61.9020 C   0  0  0  0  0  0  0  0  0  0  0  0
  -37.9282   58.2243   61.1373 C   0  0  0  0  0  0  0  0  0  0  0  0
  -38.6156   59.4368   61.1406 C   0  0  0  0  0  0  0  0  0  0  0  0
  -39.9689   59.5043   61.4956 C   0  0  0  0  0  0  0  0  0  0  0  0
  -36.6273   58.2549   60.7571 O   0  0  0  0  0  0  0  0  0  0  0  0
  -37.9495   60.5651   60.7599 O   0  0  0  0  0  0  0  0  0  0  0  0
  -36.1255   57.4638   60.7396 H   0  0  0  0  0  0  0  0  0  0  0  0
  -37.0442   60.5173   60.5228 H   0  0  0  0  0  0  0  0  0  0  0  0
 12 13  1  0  0  0
  9 10  2  0  0  0
  9  8  1  0  0  0
  6  7  2  0  0  0
  6  8  1  0  0  0
 10 11  1  0  0  0
  7  5  1  0  0  0
 16 17  2  0  0  0
 16 18  1  0  0  0
 17 19  1  0  0  0
 18 21  2  0  0  0
 13 11  1  0  0  0
  5  4  1  0  0  0
  4  3  1  0  0  0
  3  2  1  0  0  0
  2  1  1  0  0  0
  1 14  1  0  0  0
 14 15  1  0  0  0
 15 21  1  0  0  0
 19 20  2  0  0  0
 19 22  1  0  0  0
 20 21  1  0  0  0
 20 23  1  0  0  0
 22 24  1  0  0  0
 23 25  1  0  0  0
M  END
> <minimizedAffinity>
-8.01670

> <CNNscore>
0.4439836144

> <CNNaffinity>
6.1516404152

> <CNN_VS>
2.7312276363

> <CNNaffinity_variance>
0.0341662355

$$$$
/media/chris/experiments/cd1a-new-docking/inputs/ligands/5j1a_ligand.pdb


 25 25  0  0  0  0  0  0  0  0999 V2000
  -49.3334   58.4607   61.7742 C   0  0  0  0  0  0  0  0  0  0  0  0
  -50.4196   58.4431   62.8601 C   0  0  0  0  0  0  0  0  0  0  0  0
  -51.0621   59.8172   62.9903 C   0  0  0  0  0  0  0  0  0  0  0  0
  -51.1560   60.1957   64.4688 C   0  0  0  0  0  0  0  0  0  0  0  0
  -50.3627   59.2028   65.3181 C   0  0  0  0  0  0  0  0  0  0  0  0
  -48.1150   60.5270   65.8382 C   0  0  0  0  0  0  0  0  0  0  0  0
  -49.4943   60.0063   66.2877 C   0  0  0  0  0  0  0  0  0  0  0  0
  -47.5110   60.1650   64.4727 C   0  0  0  0  0  0  0  0  0  0  0  0
  -46.8270   58.7987   64.6269 C   0  0  0  0  0  0  0  0  0  0  0  0
  -45.3146   58.6693   64.9276 C   0  0  0  0  0  0  0  0  0  0  0  0
  -44.4167   59.9064   65.1246 C   0  0  0  0  0  0  0  0  0  0  0  0
  -42.4467   58.4659   65.8122 C   0  0  0  0  0  0  0  0  0  0  0  0
  -43.4136   59.5736   66.2376 C   0  0  0  0  0  0  0  0  0  0  0  0
  -49.6514   59.4267   60.6034 C   0  0  0  0  0  0  0  0  0  0  0  0
  -49.8503   58.7002   59.2521 C   0  0  0  0  0  0  0  0  0  0  0  0
  -46.5909   58.5618   57.4878 C   0  0  0  0  0  0  0  0  0  0  0  0
  -46.2922   57.1934   57.5267 C   0  0  0  0  0  0  0  0  0  0  0  0
  -47.7739   59.0442   58.0604 C   0  0  0  0  0  0  0  0  0  0  0  0
  -47.1922   56.3278   58.1479 C   0  0  0  0  0  0  0  0  0  0  0  0
  -48.3644   56.8158   58.7228 C   0  0  0  0  0  0  0  0  0  0  0  0
  -48.6634   58.1842   58.7143 C   0  0  0  0  0  0  0  0  0  0  0  0
  -46.9783   54.9914   58.2255 O   0  0  0  0  0  0  0  0  0  0  0  0
  -49.2114   55.9327   59.3265 O   0  0  0  0  0  0  0  0  0  0  0  0
  -46.2036   54.6186   57.8530 H   0  0  0  0  0  0  0  0  0  0  0  0
  -49.0092   55.0177   59.3309 H   0  0  0  0  0  0  0  0  0  0  0  0
 12 13  1  0  0  0
  9 10  2  0  0  0
  9  8  1  0  0  0
  6  7  2  0  0  0
  6  8  1  0  0  0
 10 11  1  0  0  0
  7  5  1  0  0  0
 16 17  2  0  0  0
 16 18  1  0  0  0
 17 19  1  0  0  0
 18 21  2  0  0  0
 13 11  1  0  0  0
  5  4  1  0  0  0
  4  3  1  0  0  0
  3  2  1  0  0  0
  2  1  1  0  0  0
  1 14  1  0  0  0
 14 15  1  0  0  0
 15 21  1  0  0  0
 19 20  2  0  0  0
 19 22  1  0  0  0
 20 21  1  0  0  0
 20 23  1  0  0  0
 22 24  1  0  0  0
 23 25  1  0  0  0
M  END
> <minimizedAffinity>
-7.88124

> <CNNscore>
0.4367476106

> <CNNaffinity>
6.6494879723

> <CNN_VS>
2.9041481018

> <CNNaffinity_variance>
0.2056134641

$$$$
/media/chris/experiments/cd1a-new-docking/inputs/ligands/5j1a_ligand.pdb


 25 25  0  0  0  0  0  0  0  0999 V2000
  -50.4325   58.5406   62.0822 C   0  0  0  0  0  0  0  0  0  0  0  0
  -51.0362   59.8564   62.5952 C   0  0  0  0  0  0  0  0  0  0  0  0
  -50.8320   59.9836   64.0986 C   0  0  0  0  0  0  0  0  0  0  0  0
  -50.4927   58.6118   64.6827 C   0  0  0  0  0  0  0  0  0  0  0  0
  -49.3201   58.7292   65.6561 C   0  0  0  0  0  0  0  0  0  0  0  0
  -47.1480   58.0081   64.3003 C   0  0  0  0  0  0  0  0  0  0  0  0
  -48.2894   57.6642   65.2771 C   0  0  0  0  0  0  0  0  0  0  0  0
  -47.0678   59.3647   63.5835 C   0  0  0  0  0  0  0  0  0  0  0  0
  -46.1600   59.1779   62.3590 C   0  0  0  0  0  0  0  0  0  0  0  0
  -45.9890   60.2837   61.2900 C   0  0  0  0  0  0  0  0  0  0  0  0
  -46.6932   61.6491   61.4136 C   0  0  0  0  0  0  0  0  0  0  0  0
  -44.2256   62.1084   61.7726 C   0  0  0  0  0  0  0  0  0  0  0  0
  -45.6467   62.6641   61.8933 C   0  0  0  0  0  0  0  0  0  0  0  0
  -49.5487   58.7214   60.8207 C   0  0  0  0  0  0  0  0  0  0  0  0
  -49.3854   57.4197   60.0007 C   0  0  0  0  0  0  0  0  0  0  0  0
  -46.9147   58.8930   57.6596 C   0  0  0  0  0  0  0  0  0  0  0  0
  -46.5117   57.7766   56.9149 C   0  0  0  0  0  0  0  0  0  0  0  0
  -47.8691   58.7589   58.6751 C   0  0  0  0  0  0  0  0  0  0  0  0
  -47.0761   56.5354   57.2082 C   0  0  0  0  0  0  0  0  0  0  0  0
  -48.0200   56.4076   58.2257 C   0  0  0  0  0  0  0  0  0  0  0  0
  -48.4130   57.5100   58.9955 C   0  0  0  0  0  0  0  0  0  0  0  0
  -46.7421   55.4083   56.5330 O   0  0  0  0  0  0  0  0  0  0  0  0
  -48.5393   55.1722   58.4823 O   0  0  0  0  0  0  0  0  0  0  0  0
  -46.1118   55.4463   55.8408 H   0  0  0  0  0  0  0  0  0  0  0  0
  -48.2748   54.4363   57.9659 H   0  0  0  0  0  0  0  0  0  0  0  0
 12 13  1  0  0  0
  9 10  2  0  0  0
  9  8  1  0  0  0
  6  7  2  0  0  0
  6  8  1  0  0  0
 10 11  1  0  0  0
  7  5  1  0  0  0
 16 17  2  0  0  0
 16 18  1  0  0  0
 17 19  1  0  0  0
 18 21  2  0  0  0
 13 11  1  0  0  0
  5  4  1  0  0  0
  4  3  1  0  0  0
  3  2  1  0  0  0
  2  1  1  0  0  0
  1 14  1  0  0  0
 14 15  1  0  0  0
 15 21  1  0  0  0
 19 20  2  0  0  0
 19 22  1  0  0  0
 20 21  1  0  0  0
 20 23  1  0  0  0
 22 24  1  0  0  0
 23 25  1  0  0  0
M  END
> <minimizedAffinity>
-7.87447

> <CNNscore>
0.4253967404

> <CNNaffinity>
6.8249273300

> <CNN_VS>
2.9033019543

> <CNNaffinity_variance>
0.0346633792

$$$$
