/media/chris/experiments/cd1a-new-docking/inputs/ligands/5j1a_ligand.pdb


 25 25  0  0  0  0  0  0  0  0999 V2000
  -50.6476   58.9640   62.9047 C   0  0  0  0  0  0  0  0  0  0  0  0
  -49.9605   57.8913   62.0466 C   0  0  0  0  0  0  0  0  0  0  0  0
  -50.8353   57.5235   60.8560 C   0  0  0  0  0  0  0  0  0  0  0  0
  -49.9640   57.3962   59.6059 C   0  0  0  0  0  0  0  0  0  0  0  0
  -48.6412   56.7136   59.9531 C   0  0  0  0  0  0  0  0  0  0  0  0
  -46.9038   56.2833   57.9853 C   0  0  0  0  0  0  0  0  0  0  0  0
  -48.1976   55.9052   58.7325 C   0  0  0  0  0  0  0  0  0  0  0  0
  -46.0880   57.5343   58.3466 C   0  0  0  0  0  0  0  0  0  0  0  0
  -46.8490   58.7476   57.7925 C   0  0  0  0  0  0  0  0  0  0  0  0
  -47.2178   59.9590   58.6821 C   0  0  0  0  0  0  0  0  0  0  0  0
  -46.8098   60.0308   60.1667 C   0  0  0  0  0  0  0  0  0  0  0  0
  -49.1873   60.9076   60.0808 C   0  0  0  0  0  0  0  0  0  0  0  0
  -47.9013   60.8169   60.9058 C   0  0  0  0  0  0  0  0  0  0  0  0
  -50.1007   59.0338   64.3542 C   0  0  0  0  0  0  0  0  0  0  0  0
  -48.6175   59.4680   64.4246 C   0  0  0  0  0  0  0  0  0  0  0  0
  -47.5248   56.3245   66.0615 C   0  0  0  0  0  0  0  0  0  0  0  0
  -46.1817   56.5956   66.3542 C   0  0  0  0  0  0  0  0  0  0  0  0
  -48.3185   57.2867   65.4258 C   0  0  0  0  0  0  0  0  0  0  0  0
  -45.6546   57.8366   65.9969 C   0  0  0  0  0  0  0  0  0  0  0  0
  -46.4483   58.7870   65.3570 C   0  0  0  0  0  0  0  0  0  0  0  0
  -47.7851   58.5201   65.0350 C   0  0  0  0  0  0  0  0  0  0  0  0
  -44.3665   58.1773   66.2469 O   0  0  0  0  0  0  0  0  0  0  0  0
  -45.8876   59.9843   65.0194 O   0  0  0  0  0  0  0  0  0  0  0  0
  -43.7959   57.5700   66.6751 H   0  0  0  0  0  0  0  0  0  0  0  0
  -44.9931   60.1603   65.2359 H   0  0  0  0  0  0  0  0  0  0  0  0
 12 13  1  0  0  0
  9 10  2  0  0  0
  9  8  1  0  0  0
  6  7  2  0  0  0
  6  8  1  0  0  0
 10 11  1  0  0  0
  7  5  1  0  0  0
 16 17  2  0  0  0
 16 18  1  0  0  0
 17 19  1  0  0  0
 18 21  2  0  0  0
 13 11  1  0  0  0
  5  4  1  0  0  0
  4  3  1  0  0  0
  3  2  1  0  0  0
  2  1  1  0  0  0
  1 14  1  0  0  0
 14 15  1  0  0  0
 15 21  1  0  0  0
 19 20  2  0  0  0
 19 22  1  0  0  0
 20 21  1  0  0  0
 20 23  1  0  0  0
 22 24  1  0  0  0
 23 25  1  0  0  0
M  END
> <minimizedAffinity>
-7.89260

> <CNNscore>
0.4965989888

> <CNNaffinity>
6.5959138870

> <CNN_VS>
3.2755241394

> <CNNaffinity_variance>
0.1291415989

$$$$
/media/chris/experiments/cd1a-new-docking/inputs/ligands/5j1a_ligand.pdb


 25 25  0  0  0  0  0  0  0  0999 V2000
  -48.8936   58.0757   65.2898 C   0  0  0  0  0  0  0  0  0  0  0  0
  -49.9401   58.3618   64.2026 C   0  0  0  0  0  0  0  0  0  0  0  0
  -49.3166   58.2352   62.8193 C   0  0  0  0  0  0  0  0  0  0  0  0
  -50.4224   58.0583   61.7782 C   0  0  0  0  0  0  0  0  0  0  0  0
  -49.9330   57.1683   60.6360 C   0  0  0  0  0  0  0  0  0  0  0  0
  -49.3681   57.4762   58.0548 C   0  0  0  0  0  0  0  0  0  0  0  0
  -50.0852   57.9544   59.3325 C   0  0  0  0  0  0  0  0  0  0  0  0
  -48.3917   56.2898   58.0619 C   0  0  0  0  0  0  0  0  0  0  0  0
  -47.2677   56.6216   57.0695 C   0  0  0  0  0  0  0  0  0  0  0  0
  -46.2566   57.7639   57.3294 C   0  0  0  0  0  0  0  0  0  0  0  0
  -46.2997   58.6096   58.6172 C   0  0  0  0  0  0  0  0  0  0  0  0
  -46.1076   58.2438   61.1187 C   0  0  0  0  0  0  0  0  0  0  0  0
  -45.6501   57.7806   59.7335 C   0  0  0  0  0  0  0  0  0  0  0  0
  -48.9456   59.0792   66.4711 C   0  0  0  0  0  0  0  0  0  0  0  0
  -48.1177   60.3611   66.2173 C   0  0  0  0  0  0  0  0  0  0  0  0
  -44.5963   59.2102   66.3921 C   0  0  0  0  0  0  0  0  0  0  0  0
  -44.0839   59.6401   65.1609 C   0  0  0  0  0  0  0  0  0  0  0  0
  -45.9322   59.4596   66.7283 C   0  0  0  0  0  0  0  0  0  0  0  0
  -44.9301   60.3145   64.2809 C   0  0  0  0  0  0  0  0  0  0  0  0
  -46.2613   60.5525   64.6185 C   0  0  0  0  0  0  0  0  0  0  0  0
  -46.7938   60.1058   65.8347 C   0  0  0  0  0  0  0  0  0  0  0  0
  -44.5113   60.7647   63.0727 O   0  0  0  0  0  0  0  0  0  0  0  0
  -47.0539   61.2093   63.7229 O   0  0  0  0  0  0  0  0  0  0  0  0
  -43.6244   60.6274   62.8032 H   0  0  0  0  0  0  0  0  0  0  0  0
  -46.6953   61.5070   62.9101 H   0  0  0  0  0  0  0  0  0  0  0  0
 12 13  1  0  0  0
  9 10  2  0  0  0
  9  8  1  0  0  0
  6  7  2  0  0  0
  6  8  1  0  0  0
 10 11  1  0  0  0
  7  5  1  0  0  0
 16 17  2  0  0  0
 16 18  1  0  0  0
 17 19  1  0  0  0
 18 21  2  0  0  0
 13 11  1  0  0  0
  5  4  1  0  0  0
  4  3  1  0  0  0
  3  2  1  0  0  0
  2  1  1  0  0  0
  1 14  1  0  0  0
 14 15  1  0  0  0
 15 21  1  0  0  0
 19 20  2  0  0  0
 19 22  1  0  0  0
 20 21  1  0  0  0
 20 23  1  0  0  0
 22 24  1  0  0  0
 23 25  1  0  0  0
M  END
> <minimizedAffinity>
-7.81010

> <CNNscore>
0.4144419432

> <CNNaffinity>
6.2435302734

> <CNN_VS>
2.5875809193

> <CNNaffinity_variance>
0.1499938071

$$$$
/media/chris/experiments/cd1a-new-docking/inputs/ligands/5j1a_ligand.pdb


 25 25  0  0  0  0  0  0  0  0999 V2000
  -47.6817   58.9337   64.2940 C   0  0  0  0  0  0  0  0  0  0  0  0
  -48.3766   59.9959   63.4290 C   0  0  0  0  0  0  0  0  0  0  0  0
  -48.9010   59.3727   62.1426 C   0  0  0  0  0  0  0  0  0  0  0  0
  -50.0568   58.4271   62.4711 C   0  0  0  0  0  0  0  0  0  0  0  0
  -50.7387   57.9619   61.1846 C   0  0  0  0  0  0  0  0  0  0  0  0
  -49.3522   56.6450   59.3353 C   0  0  0  0  0  0  0  0  0  0  0  0
  -50.0344   56.6871   60.7167 C   0  0  0  0  0  0  0  0  0  0  0  0
  -49.4540   57.8099   58.3386 C   0  0  0  0  0  0  0  0  0  0  0  0
  -48.5237   57.4822   57.1615 C   0  0  0  0  0  0  0  0  0  0  0  0
  -47.0414   57.9263   57.1410 C   0  0  0  0  0  0  0  0  0  0  0  0
  -46.4063   58.6919   58.3182 C   0  0  0  0  0  0  0  0  0  0  0  0
  -45.6143   58.1961   60.6752 C   0  0  0  0  0  0  0  0  0  0  0  0
  -45.7709   57.6533   59.2527 C   0  0  0  0  0  0  0  0  0  0  0  0
  -46.1339   59.0032   64.2260 C   0  0  0  0  0  0  0  0  0  0  0  0
  -45.5627   60.3500   64.7291 C   0  0  0  0  0  0  0  0  0  0  0  0
  -44.3808   62.3996   61.8729 C   0  0  0  0  0  0  0  0  0  0  0  0
  -43.0000   62.1630   61.8914 C   0  0  0  0  0  0  0  0  0  0  0  0
  -45.2158   61.7894   62.8166 C   0  0  0  0  0  0  0  0  0  0  0  0
  -42.4778   61.3142   62.8672 C   0  0  0  0  0  0  0  0  0  0  0  0
  -43.3138   60.7162   63.8087 C   0  0  0  0  0  0  0  0  0  0  0  0
  -44.6924   60.9640   63.8183 C   0  0  0  0  0  0  0  0  0  0  0  0
  -41.1545   61.0320   62.9513 O   0  0  0  0  0  0  0  0  0  0  0  0
  -42.7574   59.8993   64.7494 O   0  0  0  0  0  0  0  0  0  0  0  0
  -40.5548   61.4114   62.3395 H   0  0  0  0  0  0  0  0  0  0  0  0
  -41.8350   59.7352   64.7408 H   0  0  0  0  0  0  0  0  0  0  0  0
 12 13  1  0  0  0
  9 10  2  0  0  0
  9  8  1  0  0  0
  6  7  2  0  0  0
  6  8  1  0  0  0
 10 11  1  0  0  0
  7  5  1  0  0  0
 16 17  2  0  0  0
 16 18  1  0  0  0
 17 19  1  0  0  0
 18 21  2  0  0  0
 13 11  1  0  0  0
  5  4  1  0  0  0
  4  3  1  0  0  0
  3  2  1  0  0  0
  2  1  1  0  0  0
  1 14  1  0  0  0
 14 15  1  0  0  0
 15 21  1  0  0  0
 19 20  2  0  0  0
 19 22  1  0  0  0
 20 21  1  0  0  0
 20 23  1  0  0  0
 22 24  1  0  0  0
 23 25  1  0  0  0
M  END
> <minimizedAffinity>
-7.59686

> <CNNscore>
0.4124967456

> <CNNaffinity>
6.1504769325

> <CNN_VS>
2.5370516777

> <CNNaffinity_variance>
0.2573298812

$$$$
/media/chris/experiments/cd1a-new-docking/inputs/ligands/5j1a_ligand.pdb


 25 25  0  0  0  0  0  0  0  0999 V2000
  -48.6066   58.8465   62.2700 C   0  0  0  0  0  0  0  0  0  0  0  0
  -49.8132   58.2822   63.0346 C   0  0  0  0  0  0  0  0  0  0  0  0
  -50.0803   59.1057   64.2870 C   0  0  0  0  0  0  0  0  0  0  0  0
  -49.8744   58.2303   65.5237 C   0  0  0  0  0  0  0  0  0  0  0  0
  -48.4363   57.7143   65.5702 C   0  0  0  0  0  0  0  0  0  0  0  0
  -46.8719   59.6272   66.5549 C   0  0  0  0  0  0  0  0  0  0  0  0
  -47.7419   58.3723   66.7639 C   0  0  0  0  0  0  0  0  0  0  0  0
  -46.5681   60.1865   65.1565 C   0  0  0  0  0  0  0  0  0  0  0  0
  -45.0411   60.1972   64.9941 C   0  0  0  0  0  0  0  0  0  0  0  0
  -44.2540   58.9344   64.5692 C   0  0  0  0  0  0  0  0  0  0  0  0
  -44.9635   57.6039   64.2500 C   0  0  0  0  0  0  0  0  0  0  0  0
  -44.1746   56.9931   66.5809 C   0  0  0  0  0  0  0  0  0  0  0  0
  -44.3286   56.5210   65.1331 C   0  0  0  0  0  0  0  0  0  0  0  0
  -49.0021   59.8342   61.1417 C   0  0  0  0  0  0  0  0  0  0  0  0
  -49.5144   59.1262   59.8651 C   0  0  0  0  0  0  0  0  0  0  0  0
  -46.5994   58.6815   57.6155 C   0  0  0  0  0  0  0  0  0  0  0  0
  -46.4880   57.2864   57.5492 C   0  0  0  0  0  0  0  0  0  0  0  0
  -47.6084   59.2749   58.3834 C   0  0  0  0  0  0  0  0  0  0  0  0
  -47.3966   56.5062   58.2641 C   0  0  0  0  0  0  0  0  0  0  0  0
  -48.3938   57.1035   59.0331 C   0  0  0  0  0  0  0  0  0  0  0  0
  -48.5011   58.4969   59.1293 C   0  0  0  0  0  0  0  0  0  0  0  0
  -47.3581   55.1511   58.2505 O   0  0  0  0  0  0  0  0  0  0  0  0
  -49.2555   56.3003   59.7217 O   0  0  0  0  0  0  0  0  0  0  0  0
  -46.7048   54.7060   57.7474 H   0  0  0  0  0  0  0  0  0  0  0  0
  -49.1816   55.3686   59.6557 H   0  0  0  0  0  0  0  0  0  0  0  0
 12 13  1  0  0  0
  9 10  2  0  0  0
  9  8  1  0  0  0
  6  7  2  0  0  0
  6  8  1  0  0  0
 10 11  1  0  0  0
  7  5  1  0  0  0
 16 17  2  0  0  0
 16 18  1  0  0  0
 17 19  1  0  0  0
 18 21  2  0  0  0
 13 11  1  0  0  0
  5  4  1  0  0  0
  4  3  1  0  0  0
  3  2  1  0  0  0
  2  1  1  0  0  0
  1 14  1  0  0  0
 14 15  1  0  0  0
 15 21  1  0  0  0
 19 20  2  0  0  0
 19 22  1  0  0  0
 20 21  1  0  0  0
 20 23  1  0  0  0
 22 24  1  0  0  0
 23 25  1  0  0  0
M  END
> <minimizedAffinity>
-7.64101

> <CNNscore>
0.4066170752

> <CNNaffinity>
6.6834878922

> <CNN_VS>
2.7176203728

> <CNNaffinity_variance>
0.1981746852

$$$$
/media/chris/experiments/cd1a-new-docking/inputs/ligands/5j1a_ligand.pdb


 25 25  0  0  0  0  0  0  0  0999 V2000
  -49.8685   59.6914   62.6521 C   0  0  0  0  0  0  0  0  0  0  0  0
  -48.6724   60.0012   61.7397 C   0  0  0  0  0  0  0  0  0  0  0  0
  -49.1161   60.8411   60.5498 C   0  0  0  0  0  0  0  0  0  0  0  0
  -47.9097   61.1341   59.6571 C   0  0  0  0  0  0  0  0  0  0  0  0
  -47.0294   59.8903   59.5364 C   0  0  0  0  0  0  0  0  0  0  0  0
  -46.5220   58.1146   57.6218 C   0  0  0  0  0  0  0  0  0  0  0  0
  -46.9129   59.5422   58.0513 C   0  0  0  0  0  0  0  0  0  0  0  0
  -46.1192   57.0370   58.6402 C   0  0  0  0  0  0  0  0  0  0  0  0
  -47.0519   55.8364   58.4229 C   0  0  0  0  0  0  0  0  0  0  0  0
  -48.3499   55.6487   59.2443 C   0  0  0  0  0  0  0  0  0  0  0  0
  -48.7977   56.6762   60.3022 C   0  0  0  0  0  0  0  0  0  0  0  0
  -50.1818   58.0900   58.7167 C   0  0  0  0  0  0  0  0  0  0  0  0
  -50.2085   57.1445   59.9200 C   0  0  0  0  0  0  0  0  0  0  0  0
  -49.7171   58.3593   63.4316 C   0  0  0  0  0  0  0  0  0  0  0  0
  -49.4883   58.5642   64.9478 C   0  0  0  0  0  0  0  0  0  0  0  0
  -46.7502   56.3709   66.1511 C   0  0  0  0  0  0  0  0  0  0  0  0
  -45.7068   57.2844   66.3511 C   0  0  0  0  0  0  0  0  0  0  0  0
  -47.9966   56.8107   65.6897 C   0  0  0  0  0  0  0  0  0  0  0  0
  -45.9344   58.6331   66.0783 C   0  0  0  0  0  0  0  0  0  0  0  0
  -47.1754   59.0631   65.6115 C   0  0  0  0  0  0  0  0  0  0  0  0
  -48.2194   58.1577   65.3823 C   0  0  0  0  0  0  0  0  0  0  0  0
  -44.9787   59.5795   66.2480 O   0  0  0  0  0  0  0  0  0  0  0  0
  -47.3497   60.3910   65.3507 O   0  0  0  0  0  0  0  0  0  0  0  0
  -44.1292   59.3367   66.5599 H   0  0  0  0  0  0  0  0  0  0  0  0
  -46.6498   60.9945   65.5048 H   0  0  0  0  0  0  0  0  0  0  0  0
 12 13  1  0  0  0
  9 10  2  0  0  0
  9  8  1  0  0  0
  6  7  2  0  0  0
  6  8  1  0  0  0
 10 11  1  0  0  0
  7  5  1  0  0  0
 16 17  2  0  0  0
 16 18  1  0  0  0
 17 19  1  0  0  0
 18 21  2  0  0  0
 13 11  1  0  0  0
  5  4  1  0  0  0
  4  3  1  0  0  0
  3  2  1  0  0  0
  2  1  1  0  0  0
  1 14  1  0  0  0
 14 15  1  0  0  0
 15 21  1  0  0  0
 19 20  2  0  0  0
 19 22  1  0  0  0
 20 21  1  0  0  0
 20 23  1  0  0  0
 22 24  1  0  0  0
 23 25  1  0  0  0
M  END
> <minimizedAffinity>
-7.91501

> <CNNscore>
0.3525821269

> <CNNaffinity>
6.2850990295

> <CNN_VS>
2.2160136700

> <CNNaffinity_variance>
0.1821802855

$$$$
/media/chris/experiments/cd1a-new-docking/inputs/ligands/5j1a_ligand.pdb


 25 25  0  0  0  0  0  0  0  0999 V2000
  -43.0845   61.7512   62.0752 C   0  0  0  0  0  0  0  0  0  0  0  0
  -44.2333   61.8349   63.0912 C   0  0  0  0  0  0  0  0  0  0  0  0
  -45.5702   61.9520   62.3722 C   0  0  0  0  0  0  0  0  0  0  0  0
  -45.4868   61.2336   61.0250 C   0  0  0  0  0  0  0  0  0  0  0  0
  -46.6282   60.2253   60.8942 C   0  0  0  0  0  0  0  0  0  0  0  0
  -46.0486   58.3132   59.1380 C   0  0  0  0  0  0  0  0  0  0  0  0
  -46.0129   58.8609   60.5782 C   0  0  0  0  0  0  0  0  0  0  0  0
  -46.7958   59.0372   58.0074 C   0  0  0  0  0  0  0  0  0  0  0  0
  -47.7269   58.0093   57.3481 C   0  0  0  0  0  0  0  0  0  0  0  0
  -49.1677   57.7647   57.8569 C   0  0  0  0  0  0  0  0  0  0  0  0
  -49.7612   58.5657   59.0324 C   0  0  0  0  0  0  0  0  0  0  0  0
  -49.3284   56.5618   60.5243 C   0  0  0  0  0  0  0  0  0  0  0  0
  -50.3735   57.5567   60.0135 C   0  0  0  0  0  0  0  0  0  0  0  0
  -42.1398   60.5449   62.3149 C   0  0  0  0  0  0  0  0  0  0  0  0
  -40.7820   60.6812   61.5860 C   0  0  0  0  0  0  0  0  0  0  0  0
  -39.9795   57.0728   61.8872 C   0  0  0  0  0  0  0  0  0  0  0  0
  -38.6463   57.0303   61.4583 C   0  0  0  0  0  0  0  0  0  0  0  0
  -40.6713   58.2892   61.9270 C   0  0  0  0  0  0  0  0  0  0  0  0
  -38.0282   58.2189   61.0705 C   0  0  0  0  0  0  0  0  0  0  0  0
  -38.7253   59.4254   61.1050 C   0  0  0  0  0  0  0  0  0  0  0  0
  -40.0661   59.4790   61.5067 C   0  0  0  0  0  0  0  0  0  0  0  0
  -36.7414   58.2631   60.6460 O   0  0  0  0  0  0  0  0  0  0  0  0
  -38.0821   60.5617   60.7089 O   0  0  0  0  0  0  0  0  0  0  0  0
  -36.2339   57.4764   60.6062 H   0  0  0  0  0  0  0  0  0  0  0  0
  -37.1852   60.5231   60.4406 H   0  0  0  0  0  0  0  0  0  0  0  0
 12 13  1  0  0  0
  9 10  2  0  0  0
  9  8  1  0  0  0
  6  7  2  0  0  0
  6  8  1  0  0  0
 10 11  1  0  0  0
  7  5  1  0  0  0
 16 17  2  0  0  0
 16 18  1  0  0  0
 17 19  1  0  0  0
 18 21  2  0  0  0
 13 11  1  0  0  0
  5  4  1  0  0  0
  4  3  1  0  0  0
  3  2  1  0  0  0
  2  1  1  0  0  0
  1 14  1  0  0  0
 14 15  1  0  0  0
 15 21  1  0  0  0
 19 20  2  0  0  0
 19 22  1  0  0  0
 20 21  1  0  0  0
 20 23  1  0  0  0
 22 24  1  0  0  0
 23 25  1  0  0  0
M  END
> <minimizedAffinity>
-7.92001

> <CNNscore>
0.3357323706

> <CNNaffinity>
6.0529403687

> <CNN_VS>
2.0321679115

> <CNNaffinity_variance>
0.0198340826

$$$$
/media/chris/experiments/cd1a-new-docking/inputs/ligands/5j1a_ligand.pdb


 25 25  0  0  0  0  0  0  0  0999 V2000
  -46.2020   57.0954   59.1906 C   0  0  0  0  0  0  0  0  0  0  0  0
  -46.1581   58.0685   58.0031 C   0  0  0  0  0  0  0  0  0  0  0  0
  -47.4641   58.8449   57.9045 C   0  0  0  0  0  0  0  0  0  0  0  0
  -48.6302   57.8634   57.7819 C   0  0  0  0  0  0  0  0  0  0  0  0
  -49.7421   58.2417   58.7602 C   0  0  0  0  0  0  0  0  0  0  0  0
  -49.6805   59.7526   60.9487 C   0  0  0  0  0  0  0  0  0  0  0  0
  -49.3252   59.5338   59.4650 C   0  0  0  0  0  0  0  0  0  0  0  0
  -50.5563   58.7634   61.7331 C   0  0  0  0  0  0  0  0  0  0  0  0
  -50.9292   59.4411   63.0598 C   0  0  0  0  0  0  0  0  0  0  0  0
  -50.1657   59.1459   64.3730 C   0  0  0  0  0  0  0  0  0  0  0  0
  -48.9643   58.1813   64.4151 C   0  0  0  0  0  0  0  0  0  0  0  0
  -47.8360   60.4447   64.5953 C   0  0  0  0  0  0  0  0  0  0  0  0
  -47.7052   59.0014   64.1026 C   0  0  0  0  0  0  0  0  0  0  0  0
  -46.3974   57.8027   60.5569 C   0  0  0  0  0  0  0  0  0  0  0  0
  -45.0737   58.3170   61.1705 C   0  0  0  0  0  0  0  0  0  0  0  0
  -46.1773   61.8562   61.2800 C   0  0  0  0  0  0  0  0  0  0  0  0
  -45.1621   62.4586   62.0348 C   0  0  0  0  0  0  0  0  0  0  0  0
  -46.1318   60.4853   60.9997 C   0  0  0  0  0  0  0  0  0  0  0  0
  -44.1131   61.6665   62.5013 C   0  0  0  0  0  0  0  0  0  0  0  0
  -44.0781   60.3007   62.2253 C   0  0  0  0  0  0  0  0  0  0  0  0
  -45.0993   59.6803   61.4942 C   0  0  0  0  0  0  0  0  0  0  0  0
  -43.0920   62.1728   63.2353 O   0  0  0  0  0  0  0  0  0  0  0  0
  -43.0363   59.5641   62.7090 O   0  0  0  0  0  0  0  0  0  0  0  0
  -43.0737   63.0858   63.4453 H   0  0  0  0  0  0  0  0  0  0  0  0
  -42.3546   59.9815   63.1978 H   0  0  0  0  0  0  0  0  0  0  0  0
 12 13  1  0  0  0
  9 10  2  0  0  0
  9  8  1  0  0  0
  6  7  2  0  0  0
  6  8  1  0  0  0
 10 11  1  0  0  0
  7  5  1  0  0  0
 16 17  2  0  0  0
 16 18  1  0  0  0
 17 19  1  0  0  0
 18 21  2  0  0  0
 13 11  1  0  0  0
  5  4  1  0  0  0
  4  3  1  0  0  0
  3  2  1  0  0  0
  2  1  1  0  0  0
  1 14  1  0  0  0
 14 15  1  0  0  0
 15 21  1  0  0  0
 19 20  2  0  0  0
 19 22  1  0  0  0
 20 21  1  0  0  0
 20 23  1  0  0  0
 22 24  1  0  0  0
 23 25  1  0  0  0
M  END
> <minimizedAffinity>
-7.59839

> <CNNscore>
0.2806212306

> <CNNaffinity>
6.1988143921

> <CNN_VS>
1.7395188808

> <CNNaffinity_variance>
0.0884750634

$$$$
/media/chris/experiments/cd1a-new-docking/inputs/ligands/5j1a_ligand.pdb


 25 25  0  0  0  0  0  0  0  0999 V2000
  -46.9207   58.7498   61.2557 C   0  0  0  0  0  0  0  0  0  0  0  0
  -45.7225   58.1795   60.4823 C   0  0  0  0  0  0  0  0  0  0  0  0
  -46.1999   57.2611   59.3658 C   0  0  0  0  0  0  0  0  0  0  0  0
  -45.9678   57.9401   58.0156 C   0  0  0  0  0  0  0  0  0  0  0  0
  -47.2262   58.6907   57.5802 C   0  0  0  0  0  0  0  0  0  0  0  0
  -49.6069   57.5785   57.9942 C   0  0  0  0  0  0  0  0  0  0  0  0
  -48.2845   57.6515   57.2060 C   0  0  0  0  0  0  0  0  0  0  0  0
  -49.8635   58.4404   59.2400 C   0  0  0  0  0  0  0  0  0  0  0  0
  -50.3197   57.4941   60.3602 C   0  0  0  0  0  0  0  0  0  0  0  0
  -50.6886   58.0128   61.7707 C   0  0  0  0  0  0  0  0  0  0  0  0
  -50.6532   59.5136   62.1195 C   0  0  0  0  0  0  0  0  0  0  0  0
  -49.4629   58.4082   64.0662 C   0  0  0  0  0  0  0  0  0  0  0  0
  -50.2510   59.6331   63.5958 C   0  0  0  0  0  0  0  0  0  0  0  0
  -47.1042   60.2777   61.0638 C   0  0  0  0  0  0  0  0  0  0  0  0
  -46.8426   61.0888   62.3549 C   0  0  0  0  0  0  0  0  0  0  0  0
  -43.4506   62.5343   61.9545 C   0  0  0  0  0  0  0  0  0  0  0  0
  -42.7227   61.8567   62.9416 C   0  0  0  0  0  0  0  0  0  0  0  0
  -44.8123   62.2664   61.7706 C   0  0  0  0  0  0  0  0  0  0  0  0
  -43.3816   60.9176   63.7350 C   0  0  0  0  0  0  0  0  0  0  0  0
  -44.7394   60.6615   63.5518 C   0  0  0  0  0  0  0  0  0  0  0  0
  -45.4853   61.3499   62.5865 C   0  0  0  0  0  0  0  0  0  0  0  0
  -42.7489   60.2184   64.7089 O   0  0  0  0  0  0  0  0  0  0  0  0
  -45.3436   59.7401   64.3566 O   0  0  0  0  0  0  0  0  0  0  0  0
  -41.8360   60.3575   64.8679 H   0  0  0  0  0  0  0  0  0  0  0  0
  -44.8424   59.2810   65.0016 H   0  0  0  0  0  0  0  0  0  0  0  0
 12 13  1  0  0  0
  9 10  2  0  0  0
  9  8  1  0  0  0
  6  7  2  0  0  0
  6  8  1  0  0  0
 10 11  1  0  0  0
  7  5  1  0  0  0
 16 17  2  0  0  0
 16 18  1  0  0  0
 17 19  1  0  0  0
 18 21  2  0  0  0
 13 11  1  0  0  0
  5  4  1  0  0  0
  4  3  1  0  0  0
  3  2  1  0  0  0
  2  1  1  0  0  0
  1 14  1  0  0  0
 14 15  1  0  0  0
 15 21  1  0  0  0
 19 20  2  0  0  0
 19 22  1  0  0  0
 20 21  1  0  0  0
 20 23  1  0  0  0
 22 24  1  0  0  0
 23 25  1  0  0  0
M  END
> <minimizedAffinity>
-7.84574

> <CNNscore>
0.2747815251

> <CNNaffinity>
6.0340800285

> <CNN_VS>
1.6580537558

> <CNNaffinity_variance>
0.0922595412

$$$$
/media/chris/experiments/cd1a-new-docking/inputs/ligands/5j1a_ligand.pdb


 25 25  0  0  0  0  0  0  0  0999 V2000
  -45.8611   59.4332   62.6663 C   0  0  0  0  0  0  0  0  0  0  0  0
  -46.8148   60.5785   63.0373 C   0  0  0  0  0  0  0  0  0  0  0  0
  -46.7773   60.8356   64.5375 C   0  0  0  0  0  0  0  0  0  0  0  0
  -45.5769   60.1106   65.1469 C   0  0  0  0  0  0  0  0  0  0  0  0
  -45.9661   59.4781   66.4829 C   0  0  0  0  0  0  0  0  0  0  0  0
  -46.6142   56.9144   66.1937 C   0  0  0  0  0  0  0  0  0  0  0  0
  -45.5541   58.0055   66.4408 C   0  0  0  0  0  0  0  0  0  0  0  0
  -48.1137   57.2378   66.1060 C   0  0  0  0  0  0  0  0  0  0  0  0
  -48.4399   57.4788   64.6249 C   0  0  0  0  0  0  0  0  0  0  0  0
  -49.5517   58.4591   64.1802 C   0  0  0  0  0  0  0  0  0  0  0  0
  -50.3701   59.2758   65.1994 C   0  0  0  0  0  0  0  0  0  0  0  0
  -51.1775   60.0173   62.9132 C   0  0  0  0  0  0  0  0  0  0  0  0
  -51.1700   60.3232   64.4129 C   0  0  0  0  0  0  0  0  0  0  0  0
  -45.5431   59.3660   61.1499 C   0  0  0  0  0  0  0  0  0  0  0  0
  -45.6528   57.9367   60.5680 C   0  0  0  0  0  0  0  0  0  0  0  0
  -46.7313   57.7706   57.0234 C   0  0  0  0  0  0  0  0  0  0  0  0
  -48.1276   57.7708   57.1395 C   0  0  0  0  0  0  0  0  0  0  0  0
  -45.9263   57.8294   58.1672 C   0  0  0  0  0  0  0  0  0  0  0  0
  -48.6949   57.8266   58.4125 C   0  0  0  0  0  0  0  0  0  0  0  0
  -47.8875   57.8770   59.5475 C   0  0  0  0  0  0  0  0  0  0  0  0
  -46.4905   57.8513   59.4478 C   0  0  0  0  0  0  0  0  0  0  0  0
  -50.0360   57.8333   58.6099 O   0  0  0  0  0  0  0  0  0  0  0  0
  -48.4867   57.9228   60.7725 O   0  0  0  0  0  0  0  0  0  0  0  0
  -50.6178   57.8007   57.8761 H   0  0  0  0  0  0  0  0  0  0  0  0
  -49.4214   57.9398   60.8365 H   0  0  0  0  0  0  0  0  0  0  0  0
 12 13  1  0  0  0
  9 10  2  0  0  0
  9  8  1  0  0  0
  6  7  2  0  0  0
  6  8  1  0  0  0
 10 11  1  0  0  0
  7  5  1  0  0  0
 16 17  2  0  0  0
 16 18  1  0  0  0
 17 19  1  0  0  0
 18 21  2  0  0  0
 13 11  1  0  0  0
  5  4  1  0  0  0
  4  3  1  0  0  0
  3  2  1  0  0  0
  2  1  1  0  0  0
  1 14  1  0  0  0
 14 15  1  0  0  0
 15 21  1  0  0  0
 19 20  2  0  0  0
 19 22  1  0  0  0
 20 21  1  0  0  0
 20 23  1  0  0  0
 22 24  1  0  0  0
 23 25  1  0  0  0
M  END
> <minimizedAffinity>
-7.97015

> <CNNscore>
0.2720116377

> <CNNaffinity>
6.3385663033

> <CNN_VS>
1.7241637707

> <CNNaffinity_variance>
0.1160910279

$$$$
