/media/chris/experiments/cd1a-new-docking/inputs/ligands/4x6c_ligand.pdb


 37 36  0  0  0  0  0  0  0  0999 V2000
  -43.5715   60.1029   64.9402 O   0  0  0  0  0  0  0  0  0  0  0  0
  -42.8917   59.1663   65.2294 C   0  0  0  0  0  0  0  0  0  0  0  0
  -43.4177   57.8621   65.7328 C   0  0  0  0  0  0  0  0  0  0  0  0
  -44.5170   57.2909   64.8571 C   0  0  0  0  0  0  0  0  0  0  0  0
  -45.8255   57.1113   65.5961 C   0  0  0  0  0  0  0  0  0  0  0  0
  -46.2851   58.3301   66.3609 C   0  0  0  0  0  0  0  0  0  0  0  0
  -47.5733   58.9222   65.8487 C   0  0  0  0  0  0  0  0  0  0  0  0
  -48.3993   57.9238   65.0829 C   0  0  0  0  0  0  0  0  0  0  0  0
  -49.8852   58.0961   65.1952 C   0  0  0  0  0  0  0  0  0  0  0  0
  -50.3052   59.5032   65.2643 C   0  0  0  0  0  0  0  0  0  0  0  0
  -50.9113   60.2127   64.3379 C   0  0  0  0  0  0  0  0  0  0  0  0
  -51.3495   59.7712   62.9898 C   0  0  0  0  0  0  0  0  0  0  0  0
  -50.2983   59.8533   61.9018 C   0  0  0  0  0  0  0  0  0  0  0  0
  -49.6249   58.5335   61.6434 C   0  0  0  0  0  0  0  0  0  0  0  0
  -50.5351   57.4557   61.1127 C   0  0  0  0  0  0  0  0  0  0  0  0
  -49.8969   56.6500   60.0027 C   0  0  0  0  0  0  0  0  0  0  0  0
  -49.0178   57.4386   59.0725 C   0  0  0  0  0  0  0  0  0  0  0  0
  -48.3663   56.6058   58.0424 C   0  0  0  0  0  0  0  0  0  0  0  0
  -47.0761   57.1322   57.6013 C   0  0  0  0  0  0  0  0  0  0  0  0
  -41.5611   59.1625   65.1488 O   0  0  0  0  0  0  0  0  0  0  0  0
  -40.8387   60.0900   65.9889 C   0  0  0  0  0  0  0  0  0  0  0  0
  -40.6306   61.3504   65.1809 C   0  0  0  0  0  0  0  0  0  0  0  0
  -40.7386   62.4877   66.0369 O   0  0  0  0  0  0  0  0  0  0  0  0
  -40.0301   62.4626   66.6990 H   0  0  0  0  0  0  0  0  0  0  0  0
  -39.3130   61.4295   64.4488 C   0  0  0  0  0  0  0  0  0  0  0  0
  -38.2518   61.1417   65.3815 O   0  0  0  0  0  0  0  0  0  0  0  0
  -36.7744   61.6418   65.0705 P   0  0  0  0  0  0  0  0  0  0  0  0
  -36.7895   62.2174   63.7105 O   0  0  0  0  0  0  0  0  0  0  0  0
  -36.3624   62.4902   66.2060 O   0  0  0  0  0  0  0  0  0  0  0  0
  -36.9295   63.2762   66.2449 H   0  0  0  0  0  0  0  0  0  0  0  0
  -35.8160   60.3776   65.0576 O   0  0  0  0  0  0  0  0  0  0  0  0
  -36.3634   59.0652   64.7896 C   0  0  0  0  0  0  0  0  0  0  0  0
  -36.2757   58.8779   63.2921 C   0  0  0  0  0  0  0  0  0  0  0  0
  -37.4936   58.2749   62.6206 N   0  0  0  0  0  0  0  0  0  0  0  0
  -38.1244   59.2463   61.6755 C   0  0  0  0  0  0  0  0  0  0  0  0
  -38.5007   57.8956   63.6586 C   0  0  0  0  0  0  0  0  0  0  0  0
  -37.0907   57.0543   61.8542 C   0  0  0  0  0  0  0  0  0  0  0  0
 34 33  1  0  0  0
 34 35  1  0  0  0
 34 36  1  0  0  0
 34 37  1  0  0  0
 22 23  1  0  0  0
 22 25  1  0  0  0
 22 21  1  0  0  0
 23 24  1  0  0  0
 27 26  1  0  0  0
 27 28  2  0  0  0
 27 31  1  0  0  0
 27 29  1  0  0  0
 25 26  1  0  0  0
 32 33  1  0  0  0
 32 31  1  0  0  0
 29 30  1  0  0  0
 20 21  1  0  0  0
 20  2  1  0  0  0
  1  2  2  0  0  0
  2  3  1  0  0  0
  3  4  1  0  0  0
  4  5  1  0  0  0
  5  6  1  0  0  0
  6  7  1  0  0  0
  7  8  1  0  0  0
  8  9  1  0  0  0
  9 10  1  0  0  0
 10 11  2  0  0  0
 11 12  1  0  0  0
 12 13  1  0  0  0
 13 14  1  0  0  0
 14 15  1  0  0  0
 15 16  1  0  0  0
 16 17  1  0  0  0
 17 18  1  0  0  0
 18 19  1  0  0  0
M  CHG 1  28  -1
M  END
> <minimizedAffinity>
-8.28111

> <CNNscore>
0.8626649976

> <CNNaffinity>
7.0265274048

> <CNN_VS>
6.0615391731

> <CNNaffinity_variance>
0.3294691145

$$$$
/media/chris/experiments/cd1a-new-docking/inputs/ligands/4x6c_ligand.pdb


 37 36  0  0  0  0  0  0  0  0999 V2000
  -42.7035   58.2738   65.5052 O   0  0  0  0  0  0  0  0  0  0  0  0
  -43.2212   59.3357   65.6702 C   0  0  0  0  0  0  0  0  0  0  0  0
  -44.5782   59.7031   65.1653 C   0  0  0  0  0  0  0  0  0  0  0  0
  -45.6944   58.9657   65.8807 C   0  0  0  0  0  0  0  0  0  0  0  0
  -46.1113   57.6959   65.1707 C   0  0  0  0  0  0  0  0  0  0  0  0
  -47.5226   57.2467   65.4679 C   0  0  0  0  0  0  0  0  0  0  0  0
  -48.5600   57.8501   64.5558 C   0  0  0  0  0  0  0  0  0  0  0  0
  -49.5579   58.6952   65.3011 C   0  0  0  0  0  0  0  0  0  0  0  0
  -49.8164   60.0523   64.7168 C   0  0  0  0  0  0  0  0  0  0  0  0
  -51.0914   60.1407   63.9903 C   0  0  0  0  0  0  0  0  0  0  0  0
  -51.3336   59.8165   62.7393 C   0  0  0  0  0  0  0  0  0  0  0  0
  -50.3880   59.2554   61.7415 C   0  0  0  0  0  0  0  0  0  0  0  0
  -50.6894   57.8452   61.2769 C   0  0  0  0  0  0  0  0  0  0  0  0
  -49.4463   57.0553   60.9726 C   0  0  0  0  0  0  0  0  0  0  0  0
  -49.0076   57.1022   59.5314 C   0  0  0  0  0  0  0  0  0  0  0  0
  -48.1219   55.9351   59.1547 C   0  0  0  0  0  0  0  0  0  0  0  0
  -46.7789   56.3138   58.5955 C   0  0  0  0  0  0  0  0  0  0  0  0
  -46.8688   57.1050   57.3525 C   0  0  0  0  0  0  0  0  0  0  0  0
  -47.5562   56.4062   56.2683 C   0  0  0  0  0  0  0  0  0  0  0  0
  -42.6494   60.3460   66.3253 O   0  0  0  0  0  0  0  0  0  0  0  0
  -41.2945   60.1580   66.7911 C   0  0  0  0  0  0  0  0  0  0  0  0
  -40.3802   60.7648   65.7517 C   0  0  0  0  0  0  0  0  0  0  0  0
  -40.3457   62.1823   65.9175 O   0  0  0  0  0  0  0  0  0  0  0  0
  -39.9635   62.3975   66.7827 H   0  0  0  0  0  0  0  0  0  0  0  0
  -38.9616   60.2492   65.7697 C   0  0  0  0  0  0  0  0  0  0  0  0
  -38.2910   60.7094   64.5791 O   0  0  0  0  0  0  0  0  0  0  0  0
  -37.0902   61.7448   64.7034 P   0  0  0  0  0  0  0  0  0  0  0  0
  -36.7971   62.2334   63.3408 O   0  0  0  0  0  0  0  0  0  0  0  0
  -37.4689   62.7150   65.7495 O   0  0  0  0  0  0  0  0  0  0  0  0
  -38.2494   63.2135   65.4608 H   0  0  0  0  0  0  0  0  0  0  0  0
  -35.8141   60.9625   65.2291 O   0  0  0  0  0  0  0  0  0  0  0  0
  -34.9900   61.5479   66.2646 C   0  0  0  0  0  0  0  0  0  0  0  0
  -34.0497   62.4975   65.5579 C   0  0  0  0  0  0  0  0  0  0  0  0
  -33.9889   63.9098   66.1049 N   0  0  0  0  0  0  0  0  0  0  0  0
  -34.5771   64.8877   65.1392 C   0  0  0  0  0  0  0  0  0  0  0  0
  -32.5645   64.2870   66.3589 C   0  0  0  0  0  0  0  0  0  0  0  0
  -34.7556   63.9840   67.3879 C   0  0  0  0  0  0  0  0  0  0  0  0
 34 33  1  0  0  0
 34 35  1  0  0  0
 34 36  1  0  0  0
 34 37  1  0  0  0
 22 23  1  0  0  0
 22 25  1  0  0  0
 22 21  1  0  0  0
 23 24  1  0  0  0
 27 26  1  0  0  0
 27 28  2  0  0  0
 27 31  1  0  0  0
 27 29  1  0  0  0
 25 26  1  0  0  0
 32 33  1  0  0  0
 32 31  1  0  0  0
 29 30  1  0  0  0
 20 21  1  0  0  0
 20  2  1  0  0  0
  1  2  2  0  0  0
  2  3  1  0  0  0
  3  4  1  0  0  0
  4  5  1  0  0  0
  5  6  1  0  0  0
  6  7  1  0  0  0
  7  8  1  0  0  0
  8  9  1  0  0  0
  9 10  1  0  0  0
 10 11  2  0  0  0
 11 12  1  0  0  0
 12 13  1  0  0  0
 13 14  1  0  0  0
 14 15  1  0  0  0
 15 16  1  0  0  0
 16 17  1  0  0  0
 17 18  1  0  0  0
 18 19  1  0  0  0
M  CHG 1  28  -1
M  END
> <minimizedAffinity>
-8.23937

> <CNNscore>
0.8303446174

> <CNNaffinity>
6.5996994972

> <CNN_VS>
5.4800248146

> <CNNaffinity_variance>
0.3701888025

$$$$
/media/chris/experiments/cd1a-new-docking/inputs/ligands/4x6c_ligand.pdb


 37 36  0  0  0  0  0  0  0  0999 V2000
  -42.2972   58.0396   66.1288 O   0  0  0  0  0  0  0  0  0  0  0  0
  -42.9183   58.9815   65.7414 C   0  0  0  0  0  0  0  0  0  0  0  0
  -44.0117   58.9145   64.7259 C   0  0  0  0  0  0  0  0  0  0  0  0
  -44.6783   57.5532   64.6644 C   0  0  0  0  0  0  0  0  0  0  0  0
  -46.0505   57.5397   65.3025 C   0  0  0  0  0  0  0  0  0  0  0  0
  -46.4506   58.8421   65.9548 C   0  0  0  0  0  0  0  0  0  0  0  0
  -47.8590   59.2762   65.6378 C   0  0  0  0  0  0  0  0  0  0  0  0
  -48.7430   58.1203   65.2533 C   0  0  0  0  0  0  0  0  0  0  0  0
  -50.2169   58.3968   65.2897 C   0  0  0  0  0  0  0  0  0  0  0  0
  -50.5547   59.7965   64.9932 C   0  0  0  0  0  0  0  0  0  0  0  0
  -51.0028   60.2984   63.8635 C   0  0  0  0  0  0  0  0  0  0  0  0
  -51.3057   59.5789   62.6006 C   0  0  0  0  0  0  0  0  0  0  0  0
  -50.1062   59.2330   61.7421 C   0  0  0  0  0  0  0  0  0  0  0  0
  -49.8652   57.7513   61.6501 C   0  0  0  0  0  0  0  0  0  0  0  0
  -50.4943   57.0842   60.4538 C   0  0  0  0  0  0  0  0  0  0  0  0
  -49.7563   57.3815   59.1671 C   0  0  0  0  0  0  0  0  0  0  0  0
  -48.5213   56.5550   58.9399 C   0  0  0  0  0  0  0  0  0  0  0  0
  -47.7197   57.0120   57.7876 C   0  0  0  0  0  0  0  0  0  0  0  0
  -47.0563   55.9226   57.0738 C   0  0  0  0  0  0  0  0  0  0  0  0
  -42.7116   60.2298   66.1609 O   0  0  0  0  0  0  0  0  0  0  0  0
  -41.3549   60.6107   66.4806 C   0  0  0  0  0  0  0  0  0  0  0  0
  -40.8411   61.4345   65.3222 C   0  0  0  0  0  0  0  0  0  0  0  0
  -39.8615   62.3597   65.7937 O   0  0  0  0  0  0  0  0  0  0  0  0
  -39.1004   61.8729   66.1470 H   0  0  0  0  0  0  0  0  0  0  0  0
  -40.2377   60.6386   64.1904 C   0  0  0  0  0  0  0  0  0  0  0  0
  -39.0986   61.3594   63.6787 O   0  0  0  0  0  0  0  0  0  0  0  0
  -38.0214   60.5989   62.7897 P   0  0  0  0  0  0  0  0  0  0  0  0
  -38.2105   59.1529   63.0230 O   0  0  0  0  0  0  0  0  0  0  0  0
  -38.1484   61.1288   61.4178 O   0  0  0  0  0  0  0  0  0  0  0  0
  -39.0232   60.9039   61.0640 H   0  0  0  0  0  0  0  0  0  0  0  0
  -36.5775   60.9957   63.3138 O   0  0  0  0  0  0  0  0  0  0  0  0
  -36.0471   60.3635   64.5026 C   0  0  0  0  0  0  0  0  0  0  0  0
  -34.6199   59.9911   64.1717 C   0  0  0  0  0  0  0  0  0  0  0  0
  -34.3459   58.5159   63.9564 N   0  0  0  0  0  0  0  0  0  0  0  0
  -35.1419   57.6761   64.9029 C   0  0  0  0  0  0  0  0  0  0  0  0
  -32.8933   58.2394   64.1780 C   0  0  0  0  0  0  0  0  0  0  0  0
  -34.7126   58.1370   62.5559 C   0  0  0  0  0  0  0  0  0  0  0  0
 34 33  1  0  0  0
 34 35  1  0  0  0
 34 36  1  0  0  0
 34 37  1  0  0  0
 22 23  1  0  0  0
 22 25  1  0  0  0
 22 21  1  0  0  0
 23 24  1  0  0  0
 27 26  1  0  0  0
 27 28  2  0  0  0
 27 31  1  0  0  0
 27 29  1  0  0  0
 25 26  1  0  0  0
 32 33  1  0  0  0
 32 31  1  0  0  0
 29 30  1  0  0  0
 20 21  1  0  0  0
 20  2  1  0  0  0
  1  2  2  0  0  0
  2  3  1  0  0  0
  3  4  1  0  0  0
  4  5  1  0  0  0
  5  6  1  0  0  0
  6  7  1  0  0  0
  7  8  1  0  0  0
  8  9  1  0  0  0
  9 10  1  0  0  0
 10 11  2  0  0  0
 11 12  1  0  0  0
 12 13  1  0  0  0
 13 14  1  0  0  0
 14 15  1  0  0  0
 15 16  1  0  0  0
 16 17  1  0  0  0
 17 18  1  0  0  0
 18 19  1  0  0  0
M  CHG 1  28  -1
M  END
> <minimizedAffinity>
-8.12482

> <CNNscore>
0.8020812273

> <CNNaffinity>
6.7516646385

> <CNN_VS>
5.4153833389

> <CNNaffinity_variance>
0.3826476932

$$$$
/media/chris/experiments/cd1a-new-docking/inputs/ligands/4x6c_ligand.pdb


 37 36  0  0  0  0  0  0  0  0999 V2000
  -40.6339   60.2114   65.4914 O   0  0  0  0  0  0  0  0  0  0  0  0
  -41.6918   60.1344   64.9458 C   0  0  0  0  0  0  0  0  0  0  0  0
  -42.9806   59.8312   65.6375 C   0  0  0  0  0  0  0  0  0  0  0  0
  -43.4657   58.4154   65.3890 C   0  0  0  0  0  0  0  0  0  0  0  0
  -44.9744   58.3113   65.3301 C   0  0  0  0  0  0  0  0  0  0  0  0
  -45.6901   59.6378   65.2304 C   0  0  0  0  0  0  0  0  0  0  0  0
  -47.1848   59.5149   65.0784 C   0  0  0  0  0  0  0  0  0  0  0  0
  -47.6484   58.0832   65.1015 C   0  0  0  0  0  0  0  0  0  0  0  0
  -48.5319   57.6738   63.9605 C   0  0  0  0  0  0  0  0  0  0  0  0
  -49.7762   58.4524   63.8785 C   0  0  0  0  0  0  0  0  0  0  0  0
  -50.3822   58.8973   62.7998 C   0  0  0  0  0  0  0  0  0  0  0  0
  -49.9799   58.7100   61.3829 C   0  0  0  0  0  0  0  0  0  0  0  0
  -50.7110   57.6133   60.6359 C   0  0  0  0  0  0  0  0  0  0  0  0
  -49.8980   57.0349   59.5105 C   0  0  0  0  0  0  0  0  0  0  0  0
  -48.8361   56.0553   59.9398 C   0  0  0  0  0  0  0  0  0  0  0  0
  -47.6170   56.0896   59.0446 C   0  0  0  0  0  0  0  0  0  0  0  0
  -47.6171   57.1860   58.0161 C   0  0  0  0  0  0  0  0  0  0  0  0
  -47.4253   56.6911   56.6387 C   0  0  0  0  0  0  0  0  0  0  0  0
  -47.2963   55.2375   56.5570 C   0  0  0  0  0  0  0  0  0  0  0  0
  -41.8642   60.3018   63.6346 O   0  0  0  0  0  0  0  0  0  0  0  0
  -41.1369   61.3756   62.9974 C   0  0  0  0  0  0  0  0  0  0  0  0
  -40.0649   60.7389   62.1429 C   0  0  0  0  0  0  0  0  0  0  0  0
  -40.2948   61.0625   60.7716 O   0  0  0  0  0  0  0  0  0  0  0  0
  -40.2151   62.0213   60.6478 H   0  0  0  0  0  0  0  0  0  0  0  0
  -38.6506   61.1327   62.4940 C   0  0  0  0  0  0  0  0  0  0  0  0
  -38.6678   61.8268   63.7577 O   0  0  0  0  0  0  0  0  0  0  0  0
  -37.4188   61.7110   64.7354 P   0  0  0  0  0  0  0  0  0  0  0  0
  -36.5961   62.9205   64.5319 O   0  0  0  0  0  0  0  0  0  0  0  0
  -37.9542   61.4233   66.0806 O   0  0  0  0  0  0  0  0  0  0  0  0
  -38.4876   62.1746   66.3838 H   0  0  0  0  0  0  0  0  0  0  0  0
  -36.5591   60.4529   64.2938 O   0  0  0  0  0  0  0  0  0  0  0  0
  -35.1204   60.5682   64.1891 C   0  0  0  0  0  0  0  0  0  0  0  0
  -34.5708   59.1969   64.5098 C   0  0  0  0  0  0  0  0  0  0  0  0
  -33.2794   58.8142   63.8145 N   0  0  0  0  0  0  0  0  0  0  0  0
  -33.5408   57.9169   62.6477 C   0  0  0  0  0  0  0  0  0  0  0  0
  -32.3862   58.0987   64.7767 C   0  0  0  0  0  0  0  0  0  0  0  0
  -32.5892   60.0481   63.3241 C   0  0  0  0  0  0  0  0  0  0  0  0
 34 33  1  0  0  0
 34 35  1  0  0  0
 34 36  1  0  0  0
 34 37  1  0  0  0
 22 23  1  0  0  0
 22 25  1  0  0  0
 22 21  1  0  0  0
 23 24  1  0  0  0
 27 26  1  0  0  0
 27 28  2  0  0  0
 27 31  1  0  0  0
 27 29  1  0  0  0
 25 26  1  0  0  0
 32 33  1  0  0  0
 32 31  1  0  0  0
 29 30  1  0  0  0
 20 21  1  0  0  0
 20  2  1  0  0  0
  1  2  2  0  0  0
  2  3  1  0  0  0
  3  4  1  0  0  0
  4  5  1  0  0  0
  5  6  1  0  0  0
  6  7  1  0  0  0
  7  8  1  0  0  0
  8  9  1  0  0  0
  9 10  1  0  0  0
 10 11  2  0  0  0
 11 12  1  0  0  0
 12 13  1  0  0  0
 13 14  1  0  0  0
 14 15  1  0  0  0
 15 16  1  0  0  0
 16 17  1  0  0  0
 17 18  1  0  0  0
 18 19  1  0  0  0
M  CHG 1  28  -1
M  END
> <minimizedAffinity>
-7.75344

> <CNNscore>
0.7878915668

> <CNNaffinity>
6.7133302689

> <CNN_VS>
5.2893762589

> <CNNaffinity_variance>
0.4241713583

$$$$
/media/chris/experiments/cd1a-new-docking/inputs/ligands/4x6c_ligand.pdb


 37 36  0  0  0  0  0  0  0  0999 V2000
  -41.4447   60.8531   65.3994 O   0  0  0  0  0  0  0  0  0  0  0  0
  -42.1284   60.3038   64.5909 C   0  0  0  0  0  0  0  0  0  0  0  0
  -43.1232   59.2359   64.9092 C   0  0  0  0  0  0  0  0  0  0  0  0
  -44.1962   59.6976   65.8773 C   0  0  0  0  0  0  0  0  0  0  0  0
  -45.5844   59.6698   65.2752 C   0  0  0  0  0  0  0  0  0  0  0  0
  -46.1496   58.2843   65.0684 C   0  0  0  0  0  0  0  0  0  0  0  0
  -47.4790   58.2671   64.3579 C   0  0  0  0  0  0  0  0  0  0  0  0
  -48.6410   58.3206   65.3131 C   0  0  0  0  0  0  0  0  0  0  0  0
  -49.3100   59.6572   65.4392 C   0  0  0  0  0  0  0  0  0  0  0  0
  -50.5749   59.7482   64.6957 C   0  0  0  0  0  0  0  0  0  0  0  0
  -50.7495   60.0730   63.4336 C   0  0  0  0  0  0  0  0  0  0  0  0
  -49.7132   60.4101   62.4252 C   0  0  0  0  0  0  0  0  0  0  0  0
  -49.7468   59.5870   61.1537 C   0  0  0  0  0  0  0  0  0  0  0  0
  -49.7106   58.1069   61.4185 C   0  0  0  0  0  0  0  0  0  0  0  0
  -50.1371   57.2487   60.2551 C   0  0  0  0  0  0  0  0  0  0  0  0
  -49.1577   57.3020   59.1033 C   0  0  0  0  0  0  0  0  0  0  0  0
  -48.2663   56.0985   58.9736 C   0  0  0  0  0  0  0  0  0  0  0  0
  -47.2700   56.2267   57.8920 C   0  0  0  0  0  0  0  0  0  0  0  0
  -47.5216   55.3338   56.7624 C   0  0  0  0  0  0  0  0  0  0  0  0
  -42.0889   60.5664   63.2846 O   0  0  0  0  0  0  0  0  0  0  0  0
  -41.1068   61.5216   62.8251 C   0  0  0  0  0  0  0  0  0  0  0  0
  -40.0567   60.7460   62.0634 C   0  0  0  0  0  0  0  0  0  0  0  0
  -40.2006   60.9966   60.6654 O   0  0  0  0  0  0  0  0  0  0  0  0
  -40.0360   61.9356   60.4865 H   0  0  0  0  0  0  0  0  0  0  0  0
  -38.6305   61.0465   62.4562 C   0  0  0  0  0  0  0  0  0  0  0  0
  -38.4184   60.5824   63.8047 O   0  0  0  0  0  0  0  0  0  0  0  0
  -37.3629   61.3241   64.7347 P   0  0  0  0  0  0  0  0  0  0  0  0
  -38.1309   62.1532   65.6855 O   0  0  0  0  0  0  0  0  0  0  0  0
  -36.4513   60.2876   65.2577 O   0  0  0  0  0  0  0  0  0  0  0  0
  -36.9486   59.6738   65.8206 H   0  0  0  0  0  0  0  0  0  0  0  0
  -36.4975   62.2945   63.8256 O   0  0  0  0  0  0  0  0  0  0  0  0
  -35.7023   63.3349   64.4413 C   0  0  0  0  0  0  0  0  0  0  0  0
  -34.3813   63.3361   63.7062 C   0  0  0  0  0  0  0  0  0  0  0  0
  -33.6299   64.6523   63.6823 N   0  0  0  0  0  0  0  0  0  0  0  0
  -32.3158   64.5101   62.9838 C   0  0  0  0  0  0  0  0  0  0  0  0
  -33.3791   65.1106   65.0833 C   0  0  0  0  0  0  0  0  0  0  0  0
  -34.4446   65.6819   62.9644 C   0  0  0  0  0  0  0  0  0  0  0  0
 34 33  1  0  0  0
 34 35  1  0  0  0
 34 36  1  0  0  0
 34 37  1  0  0  0
 22 23  1  0  0  0
 22 25  1  0  0  0
 22 21  1  0  0  0
 23 24  1  0  0  0
 27 26  1  0  0  0
 27 28  2  0  0  0
 27 31  1  0  0  0
 27 29  1  0  0  0
 25 26  1  0  0  0
 32 33  1  0  0  0
 32 31  1  0  0  0
 29 30  1  0  0  0
 20 21  1  0  0  0
 20  2  1  0  0  0
  1  2  2  0  0  0
  2  3  1  0  0  0
  3  4  1  0  0  0
  4  5  1  0  0  0
  5  6  1  0  0  0
  6  7  1  0  0  0
  7  8  1  0  0  0
  8  9  1  0  0  0
  9 10  1  0  0  0
 10 11  2  0  0  0
 11 12  1  0  0  0
 12 13  1  0  0  0
 13 14  1  0  0  0
 14 15  1  0  0  0
 15 16  1  0  0  0
 16 17  1  0  0  0
 17 18  1  0  0  0
 18 19  1  0  0  0
M  CHG 1  28  -1
M  END
> <minimizedAffinity>
-7.89535

> <CNNscore>
0.7434287071

> <CNNaffinity>
6.4878005981

> <CNN_VS>
4.8232173920

> <CNNaffinity_variance>
0.6040444970

$$$$
/media/chris/experiments/cd1a-new-docking/inputs/ligands/4x6c_ligand.pdb


 37 36  0  0  0  0  0  0  0  0999 V2000
  -42.2357   58.2781   66.0992 O   0  0  0  0  0  0  0  0  0  0  0  0
  -42.6174   59.3744   65.8246 C   0  0  0  0  0  0  0  0  0  0  0  0
  -43.9280   59.6761   65.1745 C   0  0  0  0  0  0  0  0  0  0  0  0
  -45.1016   59.0236   65.8805 C   0  0  0  0  0  0  0  0  0  0  0  0
  -46.1313   58.4677   64.9208 C   0  0  0  0  0  0  0  0  0  0  0  0
  -47.3071   57.7920   65.5863 C   0  0  0  0  0  0  0  0  0  0  0  0
  -48.5219   57.6705   64.7022 C   0  0  0  0  0  0  0  0  0  0  0  0
  -49.6859   58.4771   65.2120 C   0  0  0  0  0  0  0  0  0  0  0  0
  -49.7722   59.8820   64.6934 C   0  0  0  0  0  0  0  0  0  0  0  0
  -51.0196   60.1593   63.9666 C   0  0  0  0  0  0  0  0  0  0  0  0
  -51.3353   59.8096   62.7391 C   0  0  0  0  0  0  0  0  0  0  0  0
  -50.5234   59.0242   61.7755 C   0  0  0  0  0  0  0  0  0  0  0  0
  -50.7723   57.5298   61.7774 C   0  0  0  0  0  0  0  0  0  0  0  0
  -50.4991   56.8934   60.4423 C   0  0  0  0  0  0  0  0  0  0  0  0
  -49.9677   57.8355   59.3927 C   0  0  0  0  0  0  0  0  0  0  0  0
  -48.6579   57.3658   58.7990 C   0  0  0  0  0  0  0  0  0  0  0  0
  -48.1401   56.0683   59.3542 C   0  0  0  0  0  0  0  0  0  0  0  0
  -47.1092   55.4419   58.5032 C   0  0  0  0  0  0  0  0  0  0  0  0
  -47.4849   55.3728   57.0924 C   0  0  0  0  0  0  0  0  0  0  0  0
  -41.9155   60.4838   66.0559 O   0  0  0  0  0  0  0  0  0  0  0  0
  -41.1271   61.0142   64.9672 C   0  0  0  0  0  0  0  0  0  0  0  0
  -39.7081   60.5363   65.1738 C   0  0  0  0  0  0  0  0  0  0  0  0
  -39.5566   59.2353   64.6058 O   0  0  0  0  0  0  0  0  0  0  0  0
  -39.6966   59.2826   63.6471 H   0  0  0  0  0  0  0  0  0  0  0  0
  -38.6412   61.4345   64.5963 C   0  0  0  0  0  0  0  0  0  0  0  0
  -37.3522   60.8466   64.8639 O   0  0  0  0  0  0  0  0  0  0  0  0
  -36.3116   61.6191   65.7857 P   0  0  0  0  0  0  0  0  0  0  0  0
  -36.2237   63.0019   65.2745 O   0  0  0  0  0  0  0  0  0  0  0  0
  -36.7294   61.3941   67.1834 O   0  0  0  0  0  0  0  0  0  0  0  0
  -37.5987   61.7987   67.3302 H   0  0  0  0  0  0  0  0  0  0  0  0
  -34.8899   60.9383   65.6058 O   0  0  0  0  0  0  0  0  0  0  0  0
  -34.2407   60.9640   64.3128 C   0  0  0  0  0  0  0  0  0  0  0  0
  -34.1942   59.5274   63.8443 C   0  0  0  0  0  0  0  0  0  0  0  0
  -32.8414   59.0144   63.3923 N   0  0  0  0  0  0  0  0  0  0  0  0
  -31.9042   60.1438   63.1076 C   0  0  0  0  0  0  0  0  0  0  0  0
  -33.0046   58.2035   62.1468 C   0  0  0  0  0  0  0  0  0  0  0  0
  -32.2462   58.1574   64.4651 C   0  0  0  0  0  0  0  0  0  0  0  0
 34 33  1  0  0  0
 34 35  1  0  0  0
 34 36  1  0  0  0
 34 37  1  0  0  0
 22 23  1  0  0  0
 22 25  1  0  0  0
 22 21  1  0  0  0
 23 24  1  0  0  0
 27 26  1  0  0  0
 27 28  2  0  0  0
 27 31  1  0  0  0
 27 29  1  0  0  0
 25 26  1  0  0  0
 32 33  1  0  0  0
 32 31  1  0  0  0
 29 30  1  0  0  0
 20 21  1  0  0  0
 20  2  1  0  0  0
  1  2  2  0  0  0
  2  3  1  0  0  0
  3  4  1  0  0  0
  4  5  1  0  0  0
  5  6  1  0  0  0
  6  7  1  0  0  0
  7  8  1  0  0  0
  8  9  1  0  0  0
  9 10  1  0  0  0
 10 11  2  0  0  0
 11 12  1  0  0  0
 12 13  1  0  0  0
 13 14  1  0  0  0
 14 15  1  0  0  0
 15 16  1  0  0  0
 16 17  1  0  0  0
 17 18  1  0  0  0
 18 19  1  0  0  0
M  CHG 1  28  -1
M  END
> <minimizedAffinity>
-7.92412

> <CNNscore>
0.7142822146

> <CNNaffinity>
6.3258152008

> <CNN_VS>
4.5184173584

> <CNNaffinity_variance>
0.3396728039

$$$$
/media/chris/experiments/cd1a-new-docking/inputs/ligands/4x6c_ligand.pdb


 37 36  0  0  0  0  0  0  0  0999 V2000
  -42.1014   57.8830   66.3506 O   0  0  0  0  0  0  0  0  0  0  0  0
  -42.4547   58.9930   66.0939 C   0  0  0  0  0  0  0  0  0  0  0  0
  -43.7094   59.3328   65.3579 C   0  0  0  0  0  0  0  0  0  0  0  0
  -44.3404   58.1314   64.6798 C   0  0  0  0  0  0  0  0  0  0  0  0
  -45.8482   58.1072   64.8076 C   0  0  0  0  0  0  0  0  0  0  0  0
  -46.3867   58.8475   66.0092 C   0  0  0  0  0  0  0  0  0  0  0  0
  -47.8644   59.1363   65.9363 C   0  0  0  0  0  0  0  0  0  0  0  0
  -48.6075   58.1216   65.1095 C   0  0  0  0  0  0  0  0  0  0  0  0
  -50.1035   58.2153   65.1667 C   0  0  0  0  0  0  0  0  0  0  0  0
  -50.5979   59.5967   65.2588 C   0  0  0  0  0  0  0  0  0  0  0  0
  -51.0967   60.3429   64.2980 C   0  0  0  0  0  0  0  0  0  0  0  0
  -51.3114   59.9771   62.8752 C   0  0  0  0  0  0  0  0  0  0  0  0
  -50.1172   60.1713   61.9634 C   0  0  0  0  0  0  0  0  0  0  0  0
  -49.5937   58.8757   61.4072 C   0  0  0  0  0  0  0  0  0  0  0  0
  -50.5649   57.7248   61.4718 C   0  0  0  0  0  0  0  0  0  0  0  0
  -50.4254   56.7796   60.2989 C   0  0  0  0  0  0  0  0  0  0  0  0
  -49.2816   57.0845   59.3723 C   0  0  0  0  0  0  0  0  0  0  0  0
  -48.2845   55.9982   59.3023 C   0  0  0  0  0  0  0  0  0  0  0  0
  -47.1194   56.3316   58.4852 C   0  0  0  0  0  0  0  0  0  0  0  0
  -41.7670   60.0857   66.4253 O   0  0  0  0  0  0  0  0  0  0  0  0
  -40.4327   60.2233   65.8880 C   0  0  0  0  0  0  0  0  0  0  0  0
  -40.3864   61.5405   65.1481 C   0  0  0  0  0  0  0  0  0  0  0  0
  -39.2043   62.2516   65.5157 O   0  0  0  0  0  0  0  0  0  0  0  0
  -38.4239   61.7484   65.2353 H   0  0  0  0  0  0  0  0  0  0  0  0
  -40.4261   61.4295   63.6432 C   0  0  0  0  0  0  0  0  0  0  0  0
  -39.4995   60.4033   63.2342 O   0  0  0  0  0  0  0  0  0  0  0  0
  -38.8353   60.4735   61.7908 P   0  0  0  0  0  0  0  0  0  0  0  0
  -39.8820   60.9302   60.8543 O   0  0  0  0  0  0  0  0  0  0  0  0
  -37.5974   61.2658   61.9280 O   0  0  0  0  0  0  0  0  0  0  0  0
  -37.8215   62.1737   62.1855 H   0  0  0  0  0  0  0  0  0  0  0  0
  -38.4079   59.0046   61.3704 O   0  0  0  0  0  0  0  0  0  0  0  0
  -37.0711   58.5348   61.6640 C   0  0  0  0  0  0  0  0  0  0  0  0
  -37.1860   57.7287   62.9377 C   0  0  0  0  0  0  0  0  0  0  0  0
  -36.2732   58.1412   64.0754 N   0  0  0  0  0  0  0  0  0  0  0  0
  -35.7309   56.9462   64.7916 C   0  0  0  0  0  0  0  0  0  0  0  0
  -37.0370   58.9773   65.0516 C   0  0  0  0  0  0  0  0  0  0  0  0
  -35.1265   58.9365   63.5351 C   0  0  0  0  0  0  0  0  0  0  0  0
 34 33  1  0  0  0
 34 35  1  0  0  0
 34 36  1  0  0  0
 34 37  1  0  0  0
 22 23  1  0  0  0
 22 25  1  0  0  0
 22 21  1  0  0  0
 23 24  1  0  0  0
 27 26  1  0  0  0
 27 28  2  0  0  0
 27 31  1  0  0  0
 27 29  1  0  0  0
 25 26  1  0  0  0
 32 33  1  0  0  0
 32 31  1  0  0  0
 29 30  1  0  0  0
 20 21  1  0  0  0
 20  2  1  0  0  0
  1  2  2  0  0  0
  2  3  1  0  0  0
  3  4  1  0  0  0
  4  5  1  0  0  0
  5  6  1  0  0  0
  6  7  1  0  0  0
  7  8  1  0  0  0
  8  9  1  0  0  0
  9 10  1  0  0  0
 10 11  2  0  0  0
 11 12  1  0  0  0
 12 13  1  0  0  0
 13 14  1  0  0  0
 14 15  1  0  0  0
 15 16  1  0  0  0
 16 17  1  0  0  0
 17 18  1  0  0  0
 18 19  1  0  0  0
M  CHG 1  28  -1
M  END
> <minimizedAffinity>
-8.45259

> <CNNscore>
0.6754097939

> <CNNaffinity>
6.8232002258

> <CNN_VS>
4.6084561348

> <CNNaffinity_variance>
0.4818980098

$$$$
/media/chris/experiments/cd1a-new-docking/inputs/ligands/4x6c_ligand.pdb


 37 36  0  0  0  0  0  0  0  0999 V2000
  -42.2823   60.2465   67.0005 O   0  0  0  0  0  0  0  0  0  0  0  0
  -42.1920   60.3897   65.8197 C   0  0  0  0  0  0  0  0  0  0  0  0
  -43.2541   60.0155   64.8382 C   0  0  0  0  0  0  0  0  0  0  0  0
  -44.5324   59.5412   65.5033 C   0  0  0  0  0  0  0  0  0  0  0  0
  -44.6123   58.0343   65.6189 C   0  0  0  0  0  0  0  0  0  0  0  0
  -45.9305   57.4416   65.1797 C   0  0  0  0  0  0  0  0  0  0  0  0
  -47.1363   58.1709   65.7150 C   0  0  0  0  0  0  0  0  0  0  0  0
  -48.1742   58.4201   64.6539 C   0  0  0  0  0  0  0  0  0  0  0  0
  -49.5973   58.2266   65.0870 C   0  0  0  0  0  0  0  0  0  0  0  0
  -50.3139   59.4898   65.3151 C   0  0  0  0  0  0  0  0  0  0  0  0
  -51.0112   60.1917   64.4491 C   0  0  0  0  0  0  0  0  0  0  0  0
  -51.2752   59.8799   63.0217 C   0  0  0  0  0  0  0  0  0  0  0  0
  -50.2076   60.3313   62.0462 C   0  0  0  0  0  0  0  0  0  0  0  0
  -49.6781   59.2050   61.2017 C   0  0  0  0  0  0  0  0  0  0  0  0
  -50.2071   57.8418   61.5671 C   0  0  0  0  0  0  0  0  0  0  0  0
  -50.5236   56.9962   60.3532 C   0  0  0  0  0  0  0  0  0  0  0  0
  -49.7178   57.3221   59.1267 C   0  0  0  0  0  0  0  0  0  0  0  0
  -48.5833   56.4016   58.9149 C   0  0  0  0  0  0  0  0  0  0  0  0
  -47.7368   56.7748   57.7833 C   0  0  0  0  0  0  0  0  0  0  0  0
  -41.1194   60.8993   65.2141 O   0  0  0  0  0  0  0  0  0  0  0  0
  -40.8771   60.5079   63.8444 C   0  0  0  0  0  0  0  0  0  0  0  0
  -39.7492   59.5020   63.8637 C   0  0  0  0  0  0  0  0  0  0  0  0
  -38.9861   59.6194   62.6629 O   0  0  0  0  0  0  0  0  0  0  0  0
  -38.5745   60.4970   62.6258 H   0  0  0  0  0  0  0  0  0  0  0  0
  -38.8086   59.6195   65.0384 C   0  0  0  0  0  0  0  0  0  0  0  0
  -37.5953   60.2585   64.5927 O   0  0  0  0  0  0  0  0  0  0  0  0
  -37.2573   61.7332   65.0830 P   0  0  0  0  0  0  0  0  0  0  0  0
  -36.7018   62.4585   63.9226 O   0  0  0  0  0  0  0  0  0  0  0  0
  -38.4714   62.2532   65.7423 O   0  0  0  0  0  0  0  0  0  0  0  0
  -39.1875   62.3239   65.0918 H   0  0  0  0  0  0  0  0  0  0  0  0
  -36.1256   61.6396   66.1908 O   0  0  0  0  0  0  0  0  0  0  0  0
  -34.7339   61.6205   65.7947 C   0  0  0  0  0  0  0  0  0  0  0  0
  -34.1188   62.8696   66.3834 C   0  0  0  0  0  0  0  0  0  0  0  0
  -33.5370   63.8595   65.3937 N   0  0  0  0  0  0  0  0  0  0  0  0
  -33.2185   63.1964   64.0922 C   0  0  0  0  0  0  0  0  0  0  0  0
  -32.2795   64.4447   65.9521 C   0  0  0  0  0  0  0  0  0  0  0  0
  -34.5234   64.9566   65.1431 C   0  0  0  0  0  0  0  0  0  0  0  0
 34 33  1  0  0  0
 34 35  1  0  0  0
 34 36  1  0  0  0
 34 37  1  0  0  0
 22 23  1  0  0  0
 22 25  1  0  0  0
 22 21  1  0  0  0
 23 24  1  0  0  0
 27 26  1  0  0  0
 27 28  2  0  0  0
 27 31  1  0  0  0
 27 29  1  0  0  0
 25 26  1  0  0  0
 32 33  1  0  0  0
 32 31  1  0  0  0
 29 30  1  0  0  0
 20 21  1  0  0  0
 20  2  1  0  0  0
  1  2  2  0  0  0
  2  3  1  0  0  0
  3  4  1  0  0  0
  4  5  1  0  0  0
  5  6  1  0  0  0
  6  7  1  0  0  0
  7  8  1  0  0  0
  8  9  1  0  0  0
  9 10  1  0  0  0
 10 11  2  0  0  0
 11 12  1  0  0  0
 12 13  1  0  0  0
 13 14  1  0  0  0
 14 15  1  0  0  0
 15 16  1  0  0  0
 16 17  1  0  0  0
 17 18  1  0  0  0
 18 19  1  0  0  0
M  CHG 1  28  -1
M  END
> <minimizedAffinity>
-7.97654

> <CNNscore>
0.6600435376

> <CNNaffinity>
6.3085021973

> <CNN_VS>
4.1638860703

> <CNNaffinity_variance>
0.2518814802

$$$$
/media/chris/experiments/cd1a-new-docking/inputs/ligands/4x6c_ligand.pdb


 37 36  0  0  0  0  0  0  0  0999 V2000
  -43.6363   56.4845   65.2063 O   0  0  0  0  0  0  0  0  0  0  0  0
  -43.7850   57.6294   65.5061 C   0  0  0  0  0  0  0  0  0  0  0  0
  -45.0456   58.4025   65.2955 C   0  0  0  0  0  0  0  0  0  0  0  0
  -46.2926   57.5925   65.5961 C   0  0  0  0  0  0  0  0  0  0  0  0
  -47.4092   57.8402   64.6050 C   0  0  0  0  0  0  0  0  0  0  0  0
  -48.6688   58.4130   65.2110 C   0  0  0  0  0  0  0  0  0  0  0  0
  -48.5578   59.8684   65.5875 C   0  0  0  0  0  0  0  0  0  0  0  0
  -48.4938   60.7694   64.3835 C   0  0  0  0  0  0  0  0  0  0  0  0
  -49.7096   60.7579   63.5051 C   0  0  0  0  0  0  0  0  0  0  0  0
  -49.4126   60.4296   62.1032 C   0  0  0  0  0  0  0  0  0  0  0  0
  -49.7822   59.3648   61.4262 C   0  0  0  0  0  0  0  0  0  0  0  0
  -50.6145   58.2279   61.8944 C   0  0  0  0  0  0  0  0  0  0  0  0
  -50.9864   57.2108   60.8349 C   0  0  0  0  0  0  0  0  0  0  0  0
  -49.9212   57.0487   59.7855 C   0  0  0  0  0  0  0  0  0  0  0  0
  -49.0560   55.8256   59.9504 C   0  0  0  0  0  0  0  0  0  0  0  0
  -47.7324   55.9477   59.2281 C   0  0  0  0  0  0  0  0  0  0  0  0
  -47.6093   57.1470   58.3301 C   0  0  0  0  0  0  0  0  0  0  0  0
  -47.0768   56.8198   56.9927 C   0  0  0  0  0  0  0  0  0  0  0  0
  -48.0801   56.2592   56.0898 C   0  0  0  0  0  0  0  0  0  0  0  0
  -42.8354   58.3790   66.0659 O   0  0  0  0  0  0  0  0  0  0  0  0
  -42.2594   59.4347   65.2649 C   0  0  0  0  0  0  0  0  0  0  0  0
  -42.2203   60.6749   66.1280 C   0  0  0  0  0  0  0  0  0  0  0  0
  -42.5009   60.3213   67.4824 O   0  0  0  0  0  0  0  0  0  0  0  0
  -41.8058   59.7311   67.8132 H   0  0  0  0  0  0  0  0  0  0  0  0
  -40.9165   61.4350   66.0953 C   0  0  0  0  0  0  0  0  0  0  0  0
  -39.8566   60.5141   65.7677 O   0  0  0  0  0  0  0  0  0  0  0  0
  -38.5592   61.0436   65.0157 P   0  0  0  0  0  0  0  0  0  0  0  0
  -38.8848   61.0972   63.5761 O   0  0  0  0  0  0  0  0  0  0  0  0
  -38.1403   62.2800   65.7049 O   0  0  0  0  0  0  0  0  0  0  0  0
  -38.8280   62.9563   65.6021 H   0  0  0  0  0  0  0  0  0  0  0  0
  -37.4005   59.9788   65.2172 O   0  0  0  0  0  0  0  0  0  0  0  0
  -36.5799   59.5897   64.0906 C   0  0  0  0  0  0  0  0  0  0  0  0
  -37.2546   58.3797   63.4854 C   0  0  0  0  0  0  0  0  0  0  0  0
  -36.8808   58.0514   62.0536 N   0  0  0  0  0  0  0  0  0  0  0  0
  -37.1915   56.6256   61.7289 C   0  0  0  0  0  0  0  0  0  0  0  0
  -35.4166   58.2787   61.8541 C   0  0  0  0  0  0  0  0  0  0  0  0
  -37.6491   58.9332   61.1200 C   0  0  0  0  0  0  0  0  0  0  0  0
 34 33  1  0  0  0
 34 35  1  0  0  0
 34 36  1  0  0  0
 34 37  1  0  0  0
 22 23  1  0  0  0
 22 25  1  0  0  0
 22 21  1  0  0  0
 23 24  1  0  0  0
 27 26  1  0  0  0
 27 28  2  0  0  0
 27 31  1  0  0  0
 27 29  1  0  0  0
 25 26  1  0  0  0
 32 33  1  0  0  0
 32 31  1  0  0  0
 29 30  1  0  0  0
 20 21  1  0  0  0
 20  2  1  0  0  0
  1  2  2  0  0  0
  2  3  1  0  0  0
  3  4  1  0  0  0
  4  5  1  0  0  0
  5  6  1  0  0  0
  6  7  1  0  0  0
  7  8  1  0  0  0
  8  9  1  0  0  0
  9 10  1  0  0  0
 10 11  2  0  0  0
 11 12  1  0  0  0
 12 13  1  0  0  0
 13 14  1  0  0  0
 14 15  1  0  0  0
 15 16  1  0  0  0
 16 17  1  0  0  0
 17 18  1  0  0  0
 18 19  1  0  0  0
M  CHG 1  28  -1
M  END
> <minimizedAffinity>
-7.92876

> <CNNscore>
0.6570912600

> <CNNaffinity>
6.7497339249

> <CNN_VS>
4.4351911545

> <CNNaffinity_variance>
0.3468245864

$$$$
