/media/chris/experiments/cd1a-new-docking/inputs/ligands/4x6c_ligand.pdb


 37 36  0  0  0  0  0  0  0  0999 V2000
  -41.3360   61.1523   65.5503 O   0  0  0  0  0  0  0  0  0  0  0  0
  -42.0439   60.5235   64.8246 C   0  0  0  0  0  0  0  0  0  0  0  0
  -43.0316   59.5010   65.2829 C   0  0  0  0  0  0  0  0  0  0  0  0
  -42.4061   58.1390   65.5176 C   0  0  0  0  0  0  0  0  0  0  0  0
  -43.4330   57.0484   65.7335 C   0  0  0  0  0  0  0  0  0  0  0  0
  -44.7360   57.2610   64.9996 C   0  0  0  0  0  0  0  0  0  0  0  0
  -45.9594   56.9769   65.8332 C   0  0  0  0  0  0  0  0  0  0  0  0
  -46.8000   58.2053   66.0562 C   0  0  0  0  0  0  0  0  0  0  0  0
  -47.7948   58.5099   64.9755 C   0  0  0  0  0  0  0  0  0  0  0  0
  -49.1910   58.3491   65.4064 C   0  0  0  0  0  0  0  0  0  0  0  0
  -50.2631   58.9221   64.9052 C   0  0  0  0  0  0  0  0  0  0  0  0
  -50.3453   59.8626   63.7594 C   0  0  0  0  0  0  0  0  0  0  0  0
  -51.1722   59.3874   62.5823 C   0  0  0  0  0  0  0  0  0  0  0  0
  -50.3509   58.6688   61.5474 C   0  0  0  0  0  0  0  0  0  0  0  0
  -50.9490   57.3755   61.0558 C   0  0  0  0  0  0  0  0  0  0  0  0
  -50.0250   56.6253   60.1221 C   0  0  0  0  0  0  0  0  0  0  0  0
  -49.1307   57.4945   59.2826 C   0  0  0  0  0  0  0  0  0  0  0  0
  -48.1848   56.7241   58.4514 C   0  0  0  0  0  0  0  0  0  0  0  0
  -47.6879   55.5157   59.1064 C   0  0  0  0  0  0  0  0  0  0  0  0
  -42.0415   60.6456   63.4973 O   0  0  0  0  0  0  0  0  0  0  0  0
  -41.1127   61.5871   62.9151 C   0  0  0  0  0  0  0  0  0  0  0  0
  -40.1611   60.7937   62.0493 C   0  0  0  0  0  0  0  0  0  0  0  0
  -40.3086   61.1958   60.6875 O   0  0  0  0  0  0  0  0  0  0  0  0
  -40.0551   62.1277   60.5963 H   0  0  0  0  0  0  0  0  0  0  0  0
  -38.7042   60.9136   62.4256 C   0  0  0  0  0  0  0  0  0  0  0  0
  -38.5668   60.6149   63.8294 O   0  0  0  0  0  0  0  0  0  0  0  0
  -37.7227   61.5884   64.7617 P   0  0  0  0  0  0  0  0  0  0  0  0
  -36.8724   62.4077   63.8746 O   0  0  0  0  0  0  0  0  0  0  0  0
  -38.6832   62.2602   65.6590 O   0  0  0  0  0  0  0  0  0  0  0  0
  -39.2831   62.8133   65.1346 H   0  0  0  0  0  0  0  0  0  0  0  0
  -36.7719   60.7021   65.6713 O   0  0  0  0  0  0  0  0  0  0  0  0
  -35.4962   60.2561   65.1544 C   0  0  0  0  0  0  0  0  0  0  0  0
  -35.8063   59.1084   64.2205 C   0  0  0  0  0  0  0  0  0  0  0  0
  -34.8707   57.9178   64.2897 N   0  0  0  0  0  0  0  0  0  0  0  0
  -33.6927   58.2078   65.1632 C   0  0  0  0  0  0  0  0  0  0  0  0
  -34.3780   57.5884   62.9170 C   0  0  0  0  0  0  0  0  0  0  0  0
  -35.6017   56.7375   64.8484 C   0  0  0  0  0  0  0  0  0  0  0  0
 34 33  1  0  0  0
 34 35  1  0  0  0
 34 36  1  0  0  0
 34 37  1  0  0  0
 22 23  1  0  0  0
 22 25  1  0  0  0
 22 21  1  0  0  0
 23 24  1  0  0  0
 27 26  1  0  0  0
 27 28  2  0  0  0
 27 31  1  0  0  0
 27 29  1  0  0  0
 25 26  1  0  0  0
 32 33  1  0  0  0
 32 31  1  0  0  0
 29 30  1  0  0  0
 20 21  1  0  0  0
 20  2  1  0  0  0
  1  2  2  0  0  0
  2  3  1  0  0  0
  3  4  1  0  0  0
  4  5  1  0  0  0
  5  6  1  0  0  0
  6  7  1  0  0  0
  7  8  1  0  0  0
  8  9  1  0  0  0
  9 10  1  0  0  0
 10 11  2  0  0  0
 11 12  1  0  0  0
 12 13  1  0  0  0
 13 14  1  0  0  0
 14 15  1  0  0  0
 15 16  1  0  0  0
 16 17  1  0  0  0
 17 18  1  0  0  0
 18 19  1  0  0  0
M  CHG 1  28  -1
M  END
> <minimizedAffinity>
-8.13107

> <CNNscore>
0.8280750513

> <CNNaffinity>
6.8455667496

> <CNN_VS>
5.6686429977

> <CNNaffinity_variance>
0.3622395694

$$$$
/media/chris/experiments/cd1a-new-docking/inputs/ligands/4x6c_ligand.pdb


 37 36  0  0  0  0  0  0  0  0999 V2000
  -41.7822   57.9457   65.7914 O   0  0  0  0  0  0  0  0  0  0  0  0
  -41.9777   59.0819   66.0977 C   0  0  0  0  0  0  0  0  0  0  0  0
  -43.2985   59.7715   65.9929 C   0  0  0  0  0  0  0  0  0  0  0  0
  -44.1071   59.3198   64.7914 C   0  0  0  0  0  0  0  0  0  0  0  0
  -45.4281   58.6881   65.1739 C   0  0  0  0  0  0  0  0  0  0  0  0
  -46.5739   59.6637   65.3052 C   0  0  0  0  0  0  0  0  0  0  0  0
  -47.9282   59.0523   65.0512 C   0  0  0  0  0  0  0  0  0  0  0  0
  -49.0547   59.9612   65.4640 C   0  0  0  0  0  0  0  0  0  0  0  0
  -50.4248   59.5224   65.0389 C   0  0  0  0  0  0  0  0  0  0  0  0
  -50.8019   60.0027   63.7017 C   0  0  0  0  0  0  0  0  0  0  0  0
  -50.7194   59.3590   62.5582 C   0  0  0  0  0  0  0  0  0  0  0  0
  -50.2454   57.9719   62.3227 C   0  0  0  0  0  0  0  0  0  0  0  0
  -50.7723   57.3057   61.0682 C   0  0  0  0  0  0  0  0  0  0  0  0
  -50.3142   57.9907   59.8101 C   0  0  0  0  0  0  0  0  0  0  0  0
  -49.4950   57.1269   58.8856 C   0  0  0  0  0  0  0  0  0  0  0  0
  -48.6183   56.1452   59.6314 C   0  0  0  0  0  0  0  0  0  0  0  0
  -47.4864   55.5690   58.8272 C   0  0  0  0  0  0  0  0  0  0  0  0
  -46.7632   56.5816   58.0328 C   0  0  0  0  0  0  0  0  0  0  0  0
  -46.7760   56.3099   56.5967 C   0  0  0  0  0  0  0  0  0  0  0  0
  -41.0336   59.8956   66.5704 O   0  0  0  0  0  0  0  0  0  0  0  0
  -39.8486   60.0823   65.7648 C   0  0  0  0  0  0  0  0  0  0  0  0
  -40.0019   61.4058   65.0508 C   0  0  0  0  0  0  0  0  0  0  0  0
  -38.7329   62.0553   64.9747 O   0  0  0  0  0  0  0  0  0  0  0  0
  -38.1271   61.5197   64.4389 H   0  0  0  0  0  0  0  0  0  0  0  0
  -40.5752   61.3170   63.6573 C   0  0  0  0  0  0  0  0  0  0  0  0
  -39.9475   60.2147   62.9721 O   0  0  0  0  0  0  0  0  0  0  0  0
  -39.0606   60.4932   61.6816 P   0  0  0  0  0  0  0  0  0  0  0  0
  -39.9860   60.8669   60.5930 O   0  0  0  0  0  0  0  0  0  0  0  0
  -38.0044   61.4421   62.0855 O   0  0  0  0  0  0  0  0  0  0  0  0
  -38.4087   62.2852   62.3436 H   0  0  0  0  0  0  0  0  0  0  0  0
  -38.3428   59.1389   61.2722 O   0  0  0  0  0  0  0  0  0  0  0  0
  -37.8731   58.2365   62.3012 C   0  0  0  0  0  0  0  0  0  0  0  0
  -36.3787   58.1238   62.1022 C   0  0  0  0  0  0  0  0  0  0  0  0
  -35.5266   58.2410   63.3504 N   0  0  0  0  0  0  0  0  0  0  0  0
  -35.9564   57.2573   64.3908 C   0  0  0  0  0  0  0  0  0  0  0  0
  -35.6535   59.6197   63.9150 C   0  0  0  0  0  0  0  0  0  0  0  0
  -34.0942   57.9783   63.0061 C   0  0  0  0  0  0  0  0  0  0  0  0
 34 33  1  0  0  0
 34 35  1  0  0  0
 34 36  1  0  0  0
 34 37  1  0  0  0
 22 23  1  0  0  0
 22 25  1  0  0  0
 22 21  1  0  0  0
 23 24  1  0  0  0
 27 26  1  0  0  0
 27 28  2  0  0  0
 27 31  1  0  0  0
 27 29  1  0  0  0
 25 26  1  0  0  0
 32 33  1  0  0  0
 32 31  1  0  0  0
 29 30  1  0  0  0
 20 21  1  0  0  0
 20  2  1  0  0  0
  1  2  2  0  0  0
  2  3  1  0  0  0
  3  4  1  0  0  0
  4  5  1  0  0  0
  5  6  1  0  0  0
  6  7  1  0  0  0
  7  8  1  0  0  0
  8  9  1  0  0  0
  9 10  1  0  0  0
 10 11  2  0  0  0
 11 12  1  0  0  0
 12 13  1  0  0  0
 13 14  1  0  0  0
 14 15  1  0  0  0
 15 16  1  0  0  0
 16 17  1  0  0  0
 17 18  1  0  0  0
 18 19  1  0  0  0
M  CHG 1  28  -1
M  END
> <minimizedAffinity>
-8.34548

> <CNNscore>
0.8173519969

> <CNNaffinity>
6.8227896690

> <CNN_VS>
5.5766205788

> <CNNaffinity_variance>
0.3508729339

$$$$
/media/chris/experiments/cd1a-new-docking/inputs/ligands/4x6c_ligand.pdb


 37 36  0  0  0  0  0  0  0  0999 V2000
  -41.1176   60.8967   65.4291 O   0  0  0  0  0  0  0  0  0  0  0  0
  -41.9340   60.4807   64.6652 C   0  0  0  0  0  0  0  0  0  0  0  0
  -43.1809   59.7631   65.0669 C   0  0  0  0  0  0  0  0  0  0  0  0
  -42.9056   58.4294   65.7354 C   0  0  0  0  0  0  0  0  0  0  0  0
  -43.9895   57.4055   65.4760 C   0  0  0  0  0  0  0  0  0  0  0  0
  -45.1434   57.9124   64.6434 C   0  0  0  0  0  0  0  0  0  0  0  0
  -46.4233   58.0922   65.4193 C   0  0  0  0  0  0  0  0  0  0  0  0
  -46.6715   59.5291   65.7921 C   0  0  0  0  0  0  0  0  0  0  0  0
  -47.9640   60.1085   65.2982 C   0  0  0  0  0  0  0  0  0  0  0  0
  -49.1279   59.2529   65.5701 C   0  0  0  0  0  0  0  0  0  0  0  0
  -50.3044   59.2776   64.9835 C   0  0  0  0  0  0  0  0  0  0  0  0
  -50.7561   60.1604   63.8786 C   0  0  0  0  0  0  0  0  0  0  0  0
  -51.1661   59.4529   62.6032 C   0  0  0  0  0  0  0  0  0  0  0  0
  -50.4550   58.1417   62.4115 C   0  0  0  0  0  0  0  0  0  0  0  0
  -50.7630   57.4426   61.1121 C   0  0  0  0  0  0  0  0  0  0  0  0
  -49.5219   56.9118   60.4289 C   0  0  0  0  0  0  0  0  0  0  0  0
  -49.4523   57.1730   58.9501 C   0  0  0  0  0  0  0  0  0  0  0  0
  -48.1035   56.9678   58.3864 C   0  0  0  0  0  0  0  0  0  0  0  0
  -47.5267   55.6670   58.7205 C   0  0  0  0  0  0  0  0  0  0  0  0
  -41.8367   60.5952   63.3408 O   0  0  0  0  0  0  0  0  0  0  0  0
  -40.8614   61.5261   62.8209 C   0  0  0  0  0  0  0  0  0  0  0  0
  -39.8096   60.7117   62.1032 C   0  0  0  0  0  0  0  0  0  0  0  0
  -39.9447   60.8956   60.6940 O   0  0  0  0  0  0  0  0  0  0  0  0
  -39.7758   61.8246   60.4715 H   0  0  0  0  0  0  0  0  0  0  0  0
  -38.3847   61.0262   62.4895 C   0  0  0  0  0  0  0  0  0  0  0  0
  -38.3928   61.6999   63.7641 O   0  0  0  0  0  0  0  0  0  0  0  0
  -37.0313   61.8837   64.5653 P   0  0  0  0  0  0  0  0  0  0  0  0
  -37.3765   61.9291   66.0006 O   0  0  0  0  0  0  0  0  0  0  0  0
  -36.1060   60.8407   64.0806 O   0  0  0  0  0  0  0  0  0  0  0  0
  -36.4573   59.9657   64.3083 H   0  0  0  0  0  0  0  0  0  0  0  0
  -36.4072   63.2866   64.1662 O   0  0  0  0  0  0  0  0  0  0  0  0
  -35.0438   63.3548   63.6866 C   0  0  0  0  0  0  0  0  0  0  0  0
  -34.6220   64.7983   63.8418 C   0  0  0  0  0  0  0  0  0  0  0  0
  -33.1311   65.0527   63.9433 N   0  0  0  0  0  0  0  0  0  0  0  0
  -32.6925   66.0874   62.9575 C   0  0  0  0  0  0  0  0  0  0  0  0
  -32.3875   63.7851   63.6683 C   0  0  0  0  0  0  0  0  0  0  0  0
  -32.7971   65.5323   65.3210 C   0  0  0  0  0  0  0  0  0  0  0  0
 34 33  1  0  0  0
 34 35  1  0  0  0
 34 36  1  0  0  0
 34 37  1  0  0  0
 22 23  1  0  0  0
 22 25  1  0  0  0
 22 21  1  0  0  0
 23 24  1  0  0  0
 27 26  1  0  0  0
 27 28  2  0  0  0
 27 31  1  0  0  0
 27 29  1  0  0  0
 25 26  1  0  0  0
 32 33  1  0  0  0
 32 31  1  0  0  0
 29 30  1  0  0  0
 20 21  1  0  0  0
 20  2  1  0  0  0
  1  2  2  0  0  0
  2  3  1  0  0  0
  3  4  1  0  0  0
  4  5  1  0  0  0
  5  6  1  0  0  0
  6  7  1  0  0  0
  7  8  1  0  0  0
  8  9  1  0  0  0
  9 10  1  0  0  0
 10 11  2  0  0  0
 11 12  1  0  0  0
 12 13  1  0  0  0
 13 14  1  0  0  0
 14 15  1  0  0  0
 15 16  1  0  0  0
 16 17  1  0  0  0
 17 18  1  0  0  0
 18 19  1  0  0  0
M  CHG 1  28  -1
M  END
> <minimizedAffinity>
-8.09341

> <CNNscore>
0.8083629608

> <CNNaffinity>
6.4890289307

> <CNN_VS>
5.2454905510

> <CNNaffinity_variance>
0.6386316419

$$$$
/media/chris/experiments/cd1a-new-docking/inputs/ligands/4x6c_ligand.pdb


 37 36  0  0  0  0  0  0  0  0999 V2000
  -42.6516   57.2174   65.9776 O   0  0  0  0  0  0  0  0  0  0  0  0
  -42.4949   58.3449   65.6207 C   0  0  0  0  0  0  0  0  0  0  0  0
  -43.5524   59.1853   64.9830 C   0  0  0  0  0  0  0  0  0  0  0  0
  -44.9101   59.0260   65.6407 C   0  0  0  0  0  0  0  0  0  0  0  0
  -45.7988   58.0324   64.9243 C   0  0  0  0  0  0  0  0  0  0  0  0
  -47.1952   58.5330   64.6392 C   0  0  0  0  0  0  0  0  0  0  0  0
  -47.6230   59.6814   65.5171 C   0  0  0  0  0  0  0  0  0  0  0  0
  -47.7882   60.9631   64.7455 C   0  0  0  0  0  0  0  0  0  0  0  0
  -48.8377   60.9390   63.6740 C   0  0  0  0  0  0  0  0  0  0  0  0
  -50.1730   60.5818   64.1739 C   0  0  0  0  0  0  0  0  0  0  0  0
  -51.1247   59.9292   63.5436 C   0  0  0  0  0  0  0  0  0  0  0  0
  -51.0902   59.3634   62.1715 C   0  0  0  0  0  0  0  0  0  0  0  0
  -50.4822   57.9811   62.0500 C   0  0  0  0  0  0  0  0  0  0  0  0
  -51.0006   57.2206   60.8605 C   0  0  0  0  0  0  0  0  0  0  0  0
  -50.2368   57.4542   59.5822 C   0  0  0  0  0  0  0  0  0  0  0  0
  -48.7872   57.0341   59.6859 C   0  0  0  0  0  0  0  0  0  0  0  0
  -48.0496   56.9758   58.3772 C   0  0  0  0  0  0  0  0  0  0  0  0
  -47.4324   55.6605   58.1158 C   0  0  0  0  0  0  0  0  0  0  0  0
  -47.3372   55.3366   56.6937 C   0  0  0  0  0  0  0  0  0  0  0  0
  -41.3438   59.0067   65.7375 O   0  0  0  0  0  0  0  0  0  0  0  0
  -41.4020   60.3674   66.2203 C   0  0  0  0  0  0  0  0  0  0  0  0
  -40.3480   61.1494   65.4704 C   0  0  0  0  0  0  0  0  0  0  0  0
  -40.3306   62.4971   65.9409 O   0  0  0  0  0  0  0  0  0  0  0  0
  -40.0726   62.5099   66.8759 H   0  0  0  0  0  0  0  0  0  0  0  0
  -38.9484   60.5928   65.5697 C   0  0  0  0  0  0  0  0  0  0  0  0
  -38.0590   61.6556   65.9671 O   0  0  0  0  0  0  0  0  0  0  0  0
  -36.6943   61.8747   65.1803 P   0  0  0  0  0  0  0  0  0  0  0  0
  -35.8191   60.7303   65.5048 O   0  0  0  0  0  0  0  0  0  0  0  0
  -37.0501   62.1312   63.7708 O   0  0  0  0  0  0  0  0  0  0  0  0
  -37.4744   61.3437   63.3960 H   0  0  0  0  0  0  0  0  0  0  0  0
  -36.0071   63.1915   65.7377 O   0  0  0  0  0  0  0  0  0  0  0  0
  -35.1009   63.9400   64.8938 C   0  0  0  0  0  0  0  0  0  0  0  0
  -33.7129   63.6532   65.4200 C   0  0  0  0  0  0  0  0  0  0  0  0
  -32.5646   64.2846   64.6582 N   0  0  0  0  0  0  0  0  0  0  0  0
  -31.4460   64.6546   65.5784 C   0  0  0  0  0  0  0  0  0  0  0  0
  -33.0430   65.5208   63.9664 C   0  0  0  0  0  0  0  0  0  0  0  0
  -32.0468   63.3179   63.6400 C   0  0  0  0  0  0  0  0  0  0  0  0
 34 33  1  0  0  0
 34 35  1  0  0  0
 34 36  1  0  0  0
 34 37  1  0  0  0
 22 23  1  0  0  0
 22 25  1  0  0  0
 22 21  1  0  0  0
 23 24  1  0  0  0
 27 26  1  0  0  0
 27 28  2  0  0  0
 27 31  1  0  0  0
 27 29  1  0  0  0
 25 26  1  0  0  0
 32 33  1  0  0  0
 32 31  1  0  0  0
 29 30  1  0  0  0
 20 21  1  0  0  0
 20  2  1  0  0  0
  1  2  2  0  0  0
  2  3  1  0  0  0
  3  4  1  0  0  0
  4  5  1  0  0  0
  5  6  1  0  0  0
  6  7  1  0  0  0
  7  8  1  0  0  0
  8  9  1  0  0  0
  9 10  1  0  0  0
 10 11  2  0  0  0
 11 12  1  0  0  0
 12 13  1  0  0  0
 13 14  1  0  0  0
 14 15  1  0  0  0
 15 16  1  0  0  0
 16 17  1  0  0  0
 17 18  1  0  0  0
 18 19  1  0  0  0
M  CHG 1  28  -1
M  END
> <minimizedAffinity>
-8.32705

> <CNNscore>
0.8013966680

> <CNNaffinity>
6.4467759132

> <CNN_VS>
5.1664247513

> <CNNaffinity_variance>
0.3054964840

$$$$
/media/chris/experiments/cd1a-new-docking/inputs/ligands/4x6c_ligand.pdb


 37 36  0  0  0  0  0  0  0  0999 V2000
  -42.1442   58.4854   66.3295 O   0  0  0  0  0  0  0  0  0  0  0  0
  -42.0829   59.2179   65.3899 C   0  0  0  0  0  0  0  0  0  0  0  0
  -43.2484   59.9514   64.8113 C   0  0  0  0  0  0  0  0  0  0  0  0
  -44.5634   59.5890   65.4754 C   0  0  0  0  0  0  0  0  0  0  0  0
  -45.2801   58.4512   64.7812 C   0  0  0  0  0  0  0  0  0  0  0  0
  -46.6952   58.2198   65.2564 C   0  0  0  0  0  0  0  0  0  0  0  0
  -47.1889   59.2576   66.2318 C   0  0  0  0  0  0  0  0  0  0  0  0
  -48.4100   59.9811   65.7310 C   0  0  0  0  0  0  0  0  0  0  0  0
  -49.5147   59.1036   65.2213 C   0  0  0  0  0  0  0  0  0  0  0  0
  -50.6980   59.8545   64.7776 C   0  0  0  0  0  0  0  0  0  0  0  0
  -51.0817   60.1048   63.5452 C   0  0  0  0  0  0  0  0  0  0  0  0
  -50.4326   59.6749   62.2811 C   0  0  0  0  0  0  0  0  0  0  0  0
  -50.7536   58.2652   61.8284 C   0  0  0  0  0  0  0  0  0  0  0  0
  -49.5505   57.5381   61.2940 C   0  0  0  0  0  0  0  0  0  0  0  0
  -49.7464   56.9075   59.9391 C   0  0  0  0  0  0  0  0  0  0  0  0
  -48.7626   55.7903   59.6698 C   0  0  0  0  0  0  0  0  0  0  0  0
  -47.4503   56.2298   59.0828 C   0  0  0  0  0  0  0  0  0  0  0  0
  -47.6046   57.1060   57.9048 C   0  0  0  0  0  0  0  0  0  0  0  0
  -47.6646   56.3739   56.6411 C   0  0  0  0  0  0  0  0  0  0  0  0
  -40.9586   59.4746   64.7216 O   0  0  0  0  0  0  0  0  0  0  0  0
  -39.8418   60.0022   65.4716 C   0  0  0  0  0  0  0  0  0  0  0  0
  -39.5852   61.4011   64.9597 C   0  0  0  0  0  0  0  0  0  0  0  0
  -40.1129   62.3510   65.8856 O   0  0  0  0  0  0  0  0  0  0  0  0
  -39.6428   62.2743   66.7307 H   0  0  0  0  0  0  0  0  0  0  0  0
  -38.1340   61.7343   64.7115 C   0  0  0  0  0  0  0  0  0  0  0  0
  -37.5234   62.0898   65.9682 O   0  0  0  0  0  0  0  0  0  0  0  0
  -35.9387   62.0797   66.1034 P   0  0  0  0  0  0  0  0  0  0  0  0
  -35.4168   63.0805   65.1510 O   0  0  0  0  0  0  0  0  0  0  0  0
  -35.6314   62.2250   67.5399 O   0  0  0  0  0  0  0  0  0  0  0  0
  -35.9406   63.0901   67.8508 H   0  0  0  0  0  0  0  0  0  0  0  0
  -35.4123   60.6525   65.6530 O   0  0  0  0  0  0  0  0  0  0  0  0
  -34.7244   60.5080   64.3883 C   0  0  0  0  0  0  0  0  0  0  0  0
  -34.3318   59.0511   64.2946 C   0  0  0  0  0  0  0  0  0  0  0  0
  -35.3421   58.1261   63.6457 N   0  0  0  0  0  0  0  0  0  0  0  0
  -34.6805   57.1997   62.6767 C   0  0  0  0  0  0  0  0  0  0  0  0
  -36.3626   58.9359   62.9118 C   0  0  0  0  0  0  0  0  0  0  0  0
  -36.0236   57.3100   64.6988 C   0  0  0  0  0  0  0  0  0  0  0  0
 34 33  1  0  0  0
 34 35  1  0  0  0
 34 36  1  0  0  0
 34 37  1  0  0  0
 22 23  1  0  0  0
 22 25  1  0  0  0
 22 21  1  0  0  0
 23 24  1  0  0  0
 27 26  1  0  0  0
 27 28  2  0  0  0
 27 31  1  0  0  0
 27 29  1  0  0  0
 25 26  1  0  0  0
 32 33  1  0  0  0
 32 31  1  0  0  0
 29 30  1  0  0  0
 20 21  1  0  0  0
 20  2  1  0  0  0
  1  2  2  0  0  0
  2  3  1  0  0  0
  3  4  1  0  0  0
  4  5  1  0  0  0
  5  6  1  0  0  0
  6  7  1  0  0  0
  7  8  1  0  0  0
  8  9  1  0  0  0
  9 10  1  0  0  0
 10 11  2  0  0  0
 11 12  1  0  0  0
 12 13  1  0  0  0
 13 14  1  0  0  0
 14 15  1  0  0  0
 15 16  1  0  0  0
 16 17  1  0  0  0
 17 18  1  0  0  0
 18 19  1  0  0  0
M  CHG 1  28  -1
M  END
> <minimizedAffinity>
-8.25894

> <CNNscore>
0.7959533930

> <CNNaffinity>
6.6990637779

> <CNN_VS>
5.3321423531

> <CNNaffinity_variance>
0.2889086008

$$$$
/media/chris/experiments/cd1a-new-docking/inputs/ligands/4x6c_ligand.pdb


 37 36  0  0  0  0  0  0  0  0999 V2000
  -42.4389   57.6242   65.8517 O   0  0  0  0  0  0  0  0  0  0  0  0
  -42.3489   58.8136   65.8738 C   0  0  0  0  0  0  0  0  0  0  0  0
  -43.4940   59.7447   66.1039 C   0  0  0  0  0  0  0  0  0  0  0  0
  -44.7065   59.4111   65.2553 C   0  0  0  0  0  0  0  0  0  0  0  0
  -45.9395   59.1133   66.0809 C   0  0  0  0  0  0  0  0  0  0  0  0
  -46.2640   57.6441   66.2141 C   0  0  0  0  0  0  0  0  0  0  0  0
  -47.4583   57.2070   65.4048 C   0  0  0  0  0  0  0  0  0  0  0  0
  -48.2863   58.3704   64.9293 C   0  0  0  0  0  0  0  0  0  0  0  0
  -49.7676   58.2261   65.1171 C   0  0  0  0  0  0  0  0  0  0  0  0
  -50.4620   59.5111   65.2833 C   0  0  0  0  0  0  0  0  0  0  0  0
  -51.0440   60.2414   64.3577 C   0  0  0  0  0  0  0  0  0  0  0  0
  -51.1713   59.9475   62.9080 C   0  0  0  0  0  0  0  0  0  0  0  0
  -49.9390   60.2307   62.0734 C   0  0  0  0  0  0  0  0  0  0  0  0
  -49.7851   59.2759   60.9217 C   0  0  0  0  0  0  0  0  0  0  0  0
  -49.7589   57.8198   61.3103 C   0  0  0  0  0  0  0  0  0  0  0  0
  -48.8722   56.9924   60.4060 C   0  0  0  0  0  0  0  0  0  0  0  0
  -49.1738   57.1152   58.9384 C   0  0  0  0  0  0  0  0  0  0  0  0
  -48.0211   56.7826   58.0781 C   0  0  0  0  0  0  0  0  0  0  0  0
  -46.9126   56.1676   58.8056 C   0  0  0  0  0  0  0  0  0  0  0  0
  -41.2067   59.4746   65.6866 O   0  0  0  0  0  0  0  0  0  0  0  0
  -41.1646   60.4451   64.6169 C   0  0  0  0  0  0  0  0  0  0  0  0
  -40.1451   61.4907   65.0067 C   0  0  0  0  0  0  0  0  0  0  0  0
  -40.7403   62.4227   65.9095 O   0  0  0  0  0  0  0  0  0  0  0  0
  -40.9941   61.9648   66.7261 H   0  0  0  0  0  0  0  0  0  0  0  0
  -38.8868   60.9504   65.6418 C   0  0  0  0  0  0  0  0  0  0  0  0
  -37.9546   62.0372   65.8102 O   0  0  0  0  0  0  0  0  0  0  0  0
  -36.3929   61.7588   65.6956 P   0  0  0  0  0  0  0  0  0  0  0  0
  -35.8913   62.5658   64.5649 O   0  0  0  0  0  0  0  0  0  0  0  0
  -35.8212   61.9706   67.0400 O   0  0  0  0  0  0  0  0  0  0  0  0
  -35.9293   62.9003   67.2944 H   0  0  0  0  0  0  0  0  0  0  0  0
  -36.1880   60.2276   65.3345 O   0  0  0  0  0  0  0  0  0  0  0  0
  -35.7407   59.8568   64.0094 C   0  0  0  0  0  0  0  0  0  0  0  0
  -36.1595   58.4166   63.8191 C   0  0  0  0  0  0  0  0  0  0  0  0
  -37.4031   58.1860   62.9837 N   0  0  0  0  0  0  0  0  0  0  0  0
  -38.5385   57.7044   63.8286 C   0  0  0  0  0  0  0  0  0  0  0  0
  -37.1182   57.1585   61.9355 C   0  0  0  0  0  0  0  0  0  0  0  0
  -37.8078   59.4664   62.3231 C   0  0  0  0  0  0  0  0  0  0  0  0
 34 33  1  0  0  0
 34 35  1  0  0  0
 34 36  1  0  0  0
 34 37  1  0  0  0
 22 23  1  0  0  0
 22 25  1  0  0  0
 22 21  1  0  0  0
 23 24  1  0  0  0
 27 26  1  0  0  0
 27 28  2  0  0  0
 27 31  1  0  0  0
 27 29  1  0  0  0
 25 26  1  0  0  0
 32 33  1  0  0  0
 32 31  1  0  0  0
 29 30  1  0  0  0
 20 21  1  0  0  0
 20  2  1  0  0  0
  1  2  2  0  0  0
  2  3  1  0  0  0
  3  4  1  0  0  0
  4  5  1  0  0  0
  5  6  1  0  0  0
  6  7  1  0  0  0
  7  8  1  0  0  0
  8  9  1  0  0  0
  9 10  1  0  0  0
 10 11  2  0  0  0
 11 12  1  0  0  0
 12 13  1  0  0  0
 13 14  1  0  0  0
 14 15  1  0  0  0
 15 16  1  0  0  0
 16 17  1  0  0  0
 17 18  1  0  0  0
 18 19  1  0  0  0
M  CHG 1  28  -1
M  END
> <minimizedAffinity>
-8.18104

> <CNNscore>
0.7460413575

> <CNNaffinity>
6.8704018593

> <CNN_VS>
5.1256041527

> <CNNaffinity_variance>
0.3951410353

$$$$
/media/chris/experiments/cd1a-new-docking/inputs/ligands/4x6c_ligand.pdb


 37 36  0  0  0  0  0  0  0  0999 V2000
  -42.5804   57.3358   66.2695 O   0  0  0  0  0  0  0  0  0  0  0  0
  -42.5698   58.2833   65.5448 C   0  0  0  0  0  0  0  0  0  0  0  0
  -43.7678   58.8133   64.8271 C   0  0  0  0  0  0  0  0  0  0  0  0
  -44.9679   58.9974   65.7367 C   0  0  0  0  0  0  0  0  0  0  0  0
  -46.1534   58.1507   65.3266 C   0  0  0  0  0  0  0  0  0  0  0  0
  -47.3474   58.9385   64.8411 C   0  0  0  0  0  0  0  0  0  0  0  0
  -47.3087   60.3982   65.2154 C   0  0  0  0  0  0  0  0  0  0  0  0
  -48.0387   61.2643   64.2242 C   0  0  0  0  0  0  0  0  0  0  0  0
  -49.3468   60.7187   63.7329 C   0  0  0  0  0  0  0  0  0  0  0  0
  -49.4053   60.5728   62.2713 C   0  0  0  0  0  0  0  0  0  0  0  0
  -49.8847   59.5637   61.5779 C   0  0  0  0  0  0  0  0  0  0  0  0
  -50.5124   58.3195   62.0900 C   0  0  0  0  0  0  0  0  0  0  0  0
  -51.0404   57.3714   61.0328 C   0  0  0  0  0  0  0  0  0  0  0  0
  -50.3677   57.5538   59.7002 C   0  0  0  0  0  0  0  0  0  0  0  0
  -49.2573   56.5749   59.4162 C   0  0  0  0  0  0  0  0  0  0  0  0
  -48.0331   57.2393   58.8259 C   0  0  0  0  0  0  0  0  0  0  0  0
  -46.9067   56.3036   58.4858 C   0  0  0  0  0  0  0  0  0  0  0  0
  -47.1877   55.4594   57.3077 C   0  0  0  0  0  0  0  0  0  0  0  0
  -47.6039   56.2228   56.1329 C   0  0  0  0  0  0  0  0  0  0  0  0
  -41.4768   58.9955   65.2710 O   0  0  0  0  0  0  0  0  0  0  0  0
  -41.1705   60.1089   66.1396 C   0  0  0  0  0  0  0  0  0  0  0  0
  -41.1361   61.3488   65.2758 C   0  0  0  0  0  0  0  0  0  0  0  0
  -40.2499   62.3073   65.8538 O   0  0  0  0  0  0  0  0  0  0  0  0
  -39.3481   61.9500   65.8621 H   0  0  0  0  0  0  0  0  0  0  0  0
  -40.7189   61.1181   63.8436 C   0  0  0  0  0  0  0  0  0  0  0  0
  -39.4107   61.6921   63.6486 O   0  0  0  0  0  0  0  0  0  0  0  0
  -38.1868   60.7497   63.2700 P   0  0  0  0  0  0  0  0  0  0  0  0
  -38.6250   59.3581   63.4993 O   0  0  0  0  0  0  0  0  0  0  0  0
  -37.7402   61.1503   61.9213 O   0  0  0  0  0  0  0  0  0  0  0  0
  -38.4472   60.9740   61.2810 H   0  0  0  0  0  0  0  0  0  0  0  0
  -36.9950   61.0599   64.2702 O   0  0  0  0  0  0  0  0  0  0  0  0
  -36.2482   59.9681   64.8566 C   0  0  0  0  0  0  0  0  0  0  0  0
  -35.1676   59.6219   63.8575 C   0  0  0  0  0  0  0  0  0  0  0  0
  -34.5806   58.2283   63.9626 N   0  0  0  0  0  0  0  0  0  0  0  0
  -35.4446   57.3411   64.7999 C   0  0  0  0  0  0  0  0  0  0  0  0
  -33.2245   58.3027   64.5878 C   0  0  0  0  0  0  0  0  0  0  0  0
  -34.4622   57.6298   62.5961 C   0  0  0  0  0  0  0  0  0  0  0  0
 34 33  1  0  0  0
 34 35  1  0  0  0
 34 36  1  0  0  0
 34 37  1  0  0  0
 22 23  1  0  0  0
 22 25  1  0  0  0
 22 21  1  0  0  0
 23 24  1  0  0  0
 27 26  1  0  0  0
 27 28  2  0  0  0
 27 31  1  0  0  0
 27 29  1  0  0  0
 25 26  1  0  0  0
 32 33  1  0  0  0
 32 31  1  0  0  0
 29 30  1  0  0  0
 20 21  1  0  0  0
 20  2  1  0  0  0
  1  2  2  0  0  0
  2  3  1  0  0  0
  3  4  1  0  0  0
  4  5  1  0  0  0
  5  6  1  0  0  0
  6  7  1  0  0  0
  7  8  1  0  0  0
  8  9  1  0  0  0
  9 10  1  0  0  0
 10 11  2  0  0  0
 11 12  1  0  0  0
 12 13  1  0  0  0
 13 14  1  0  0  0
 14 15  1  0  0  0
 15 16  1  0  0  0
 16 17  1  0  0  0
 17 18  1  0  0  0
 18 19  1  0  0  0
M  CHG 1  28  -1
M  END
> <minimizedAffinity>
-8.01795

> <CNNscore>
0.7380809188

> <CNNaffinity>
6.7199387550

> <CNN_VS>
4.9598584175

> <CNNaffinity_variance>
0.3097041547

$$$$
/media/chris/experiments/cd1a-new-docking/inputs/ligands/4x6c_ligand.pdb


 37 36  0  0  0  0  0  0  0  0999 V2000
  -45.3662   60.5372   65.1012 O   0  0  0  0  0  0  0  0  0  0  0  0
  -44.6372   59.5960   65.1773 C   0  0  0  0  0  0  0  0  0  0  0  0
  -45.0747   58.2136   65.5361 C   0  0  0  0  0  0  0  0  0  0  0  0
  -46.5111   58.1556   66.0209 C   0  0  0  0  0  0  0  0  0  0  0  0
  -47.5156   58.1626   64.8889 C   0  0  0  0  0  0  0  0  0  0  0  0
  -48.7807   57.3863   65.1696 C   0  0  0  0  0  0  0  0  0  0  0  0
  -50.0348   58.2206   65.1094 C   0  0  0  0  0  0  0  0  0  0  0  0
  -49.7403   59.6929   65.0046 C   0  0  0  0  0  0  0  0  0  0  0  0
  -50.4465   60.4135   63.8945 C   0  0  0  0  0  0  0  0  0  0  0  0
  -49.7509   60.3189   62.6030 C   0  0  0  0  0  0  0  0  0  0  0  0
  -49.8833   59.3928   61.6791 C   0  0  0  0  0  0  0  0  0  0  0  0
  -50.7861   58.2142   61.6896 C   0  0  0  0  0  0  0  0  0  0  0  0
  -50.8531   57.4311   60.3944 C   0  0  0  0  0  0  0  0  0  0  0  0
  -49.8741   56.2901   60.3538 C   0  0  0  0  0  0  0  0  0  0  0  0
  -48.4894   56.6649   59.8911 C   0  0  0  0  0  0  0  0  0  0  0  0
  -47.6962   55.4722   59.4043 C   0  0  0  0  0  0  0  0  0  0  0  0
  -46.9916   55.6732   58.0916 C   0  0  0  0  0  0  0  0  0  0  0  0
  -47.5089   56.8233   57.3242 C   0  0  0  0  0  0  0  0  0  0  0  0
  -47.5173   56.6003   55.8797 C   0  0  0  0  0  0  0  0  0  0  0  0
  -43.3238   59.6555   64.9583 O   0  0  0  0  0  0  0  0  0  0  0  0
  -42.4891   60.1424   66.0327 C   0  0  0  0  0  0  0  0  0  0  0  0
  -41.2517   60.7356   65.3990 C   0  0  0  0  0  0  0  0  0  0  0  0
  -40.9045   61.9449   66.0735 O   0  0  0  0  0  0  0  0  0  0  0  0
  -40.6763   61.7469   66.9953 H   0  0  0  0  0  0  0  0  0  0  0  0
  -40.0428   59.8318   65.3903 C   0  0  0  0  0  0  0  0  0  0  0  0
  -38.9422   60.5315   66.0050 O   0  0  0  0  0  0  0  0  0  0  0  0
  -37.6310   60.8344   65.1574 P   0  0  0  0  0  0  0  0  0  0  0  0
  -37.9900   61.8592   64.1563 O   0  0  0  0  0  0  0  0  0  0  0  0
  -36.5533   61.1202   66.1248 O   0  0  0  0  0  0  0  0  0  0  0  0
  -36.7682   61.9265   66.6193 H   0  0  0  0  0  0  0  0  0  0  0  0
  -37.2261   59.5112   64.3815 O   0  0  0  0  0  0  0  0  0  0  0  0
  -36.1129   58.7157   64.8524 C   0  0  0  0  0  0  0  0  0  0  0  0
  -35.1576   58.6087   63.6855 C   0  0  0  0  0  0  0  0  0  0  0  0
  -33.7320   59.0536   63.9447 N   0  0  0  0  0  0  0  0  0  0  0  0
  -33.6651   60.5243   64.2048 C   0  0  0  0  0  0  0  0  0  0  0  0
  -32.8856   58.7403   62.7527 C   0  0  0  0  0  0  0  0  0  0  0  0
  -33.1906   58.3314   65.1384 C   0  0  0  0  0  0  0  0  0  0  0  0
 34 33  1  0  0  0
 34 35  1  0  0  0
 34 36  1  0  0  0
 34 37  1  0  0  0
 22 23  1  0  0  0
 22 25  1  0  0  0
 22 21  1  0  0  0
 23 24  1  0  0  0
 27 26  1  0  0  0
 27 28  2  0  0  0
 27 31  1  0  0  0
 27 29  1  0  0  0
 25 26  1  0  0  0
 32 33  1  0  0  0
 32 31  1  0  0  0
 29 30  1  0  0  0
 20 21  1  0  0  0
 20  2  1  0  0  0
  1  2  2  0  0  0
  2  3  1  0  0  0
  3  4  1  0  0  0
  4  5  1  0  0  0
  5  6  1  0  0  0
  6  7  1  0  0  0
  7  8  1  0  0  0
  8  9  1  0  0  0
  9 10  1  0  0  0
 10 11  2  0  0  0
 11 12  1  0  0  0
 12 13  1  0  0  0
 13 14  1  0  0  0
 14 15  1  0  0  0
 15 16  1  0  0  0
 16 17  1  0  0  0
 17 18  1  0  0  0
 18 19  1  0  0  0
M  CHG 1  28  -1
M  END
> <minimizedAffinity>
-7.46274

> <CNNscore>
0.7324654460

> <CNNaffinity>
6.5681481361

> <CNN_VS>
4.8109416962

> <CNNaffinity_variance>
0.1969037950

$$$$
/media/chris/experiments/cd1a-new-docking/inputs/ligands/4x6c_ligand.pdb


 37 36  0  0  0  0  0  0  0  0999 V2000
  -39.1402   60.9366   61.6900 O   0  0  0  0  0  0  0  0  0  0  0  0
  -39.5157   60.4194   62.6972 C   0  0  0  0  0  0  0  0  0  0  0  0
  -40.6955   60.8735   63.4928 C   0  0  0  0  0  0  0  0  0  0  0  0
  -41.1732   59.8326   64.4877 C   0  0  0  0  0  0  0  0  0  0  0  0
  -42.3193   60.3211   65.3470 C   0  0  0  0  0  0  0  0  0  0  0  0
  -43.6846   59.8672   64.8869 C   0  0  0  0  0  0  0  0  0  0  0  0
  -44.4761   59.1434   65.9461 C   0  0  0  0  0  0  0  0  0  0  0  0
  -45.8575   58.7726   65.4773 C   0  0  0  0  0  0  0  0  0  0  0  0
  -46.7628   59.9270   65.1643 C   0  0  0  0  0  0  0  0  0  0  0  0
  -48.0525   59.8635   65.8667 C   0  0  0  0  0  0  0  0  0  0  0  0
  -49.0959   59.1182   65.5760 C   0  0  0  0  0  0  0  0  0  0  0  0
  -49.2351   58.1302   64.4765 C   0  0  0  0  0  0  0  0  0  0  0  0
  -50.1012   58.5661   63.3124 C   0  0  0  0  0  0  0  0  0  0  0  0
  -49.3421   58.6316   62.0157 C   0  0  0  0  0  0  0  0  0  0  0  0
  -50.1686   58.3486   60.7874 C   0  0  0  0  0  0  0  0  0  0  0  0
  -50.2085   56.8769   60.4397 C   0  0  0  0  0  0  0  0  0  0  0  0
  -48.9732   56.3524   59.7623 C   0  0  0  0  0  0  0  0  0  0  0  0
  -48.5194   57.2008   58.6426 C   0  0  0  0  0  0  0  0  0  0  0  0
  -48.2368   56.4482   57.4219 C   0  0  0  0  0  0  0  0  0  0  0  0
  -38.9225   59.3640   63.2548 O   0  0  0  0  0  0  0  0  0  0  0  0
  -37.7557   58.8269   62.5929 C   0  0  0  0  0  0  0  0  0  0  0  0
  -36.8472   58.2799   63.6701 C   0  0  0  0  0  0  0  0  0  0  0  0
  -35.4908   58.5920   63.3526 O   0  0  0  0  0  0  0  0  0  0  0  0
  -35.3721   59.5547   63.3522 H   0  0  0  0  0  0  0  0  0  0  0  0
  -37.1366   58.7803   65.0645 C   0  0  0  0  0  0  0  0  0  0  0  0
  -36.3701   59.9805   65.2896 O   0  0  0  0  0  0  0  0  0  0  0  0
  -37.0926   61.2815   65.8505 P   0  0  0  0  0  0  0  0  0  0  0  0
  -38.4477   60.8751   66.2747 O   0  0  0  0  0  0  0  0  0  0  0  0
  -36.1792   61.8841   66.8413 O   0  0  0  0  0  0  0  0  0  0  0  0
  -36.0644   61.2752   67.5875 H   0  0  0  0  0  0  0  0  0  0  0  0
  -37.2417   62.3180   64.6587 O   0  0  0  0  0  0  0  0  0  0  0  0
  -36.3385   62.2485   63.5304 C   0  0  0  0  0  0  0  0  0  0  0  0
  -35.8029   63.6496   63.3420 C   0  0  0  0  0  0  0  0  0  0  0  0
  -34.4154   63.9152   63.8915 N   0  0  0  0  0  0  0  0  0  0  0  0
  -33.7216   62.6388   64.2439 C   0  0  0  0  0  0  0  0  0  0  0  0
  -34.5176   64.7589   65.1216 C   0  0  0  0  0  0  0  0  0  0  0  0
  -33.5990   64.6358   62.8648 C   0  0  0  0  0  0  0  0  0  0  0  0
 34 33  1  0  0  0
 34 35  1  0  0  0
 34 36  1  0  0  0
 34 37  1  0  0  0
 22 23  1  0  0  0
 22 25  1  0  0  0
 22 21  1  0  0  0
 23 24  1  0  0  0
 27 26  1  0  0  0
 27 28  2  0  0  0
 27 31  1  0  0  0
 27 29  1  0  0  0
 25 26  1  0  0  0
 32 33  1  0  0  0
 32 31  1  0  0  0
 29 30  1  0  0  0
 20 21  1  0  0  0
 20  2  1  0  0  0
  1  2  2  0  0  0
  2  3  1  0  0  0
  3  4  1  0  0  0
  4  5  1  0  0  0
  5  6  1  0  0  0
  6  7  1  0  0  0
  7  8  1  0  0  0
  8  9  1  0  0  0
  9 10  1  0  0  0
 10 11  2  0  0  0
 11 12  1  0  0  0
 12 13  1  0  0  0
 13 14  1  0  0  0
 14 15  1  0  0  0
 15 16  1  0  0  0
 16 17  1  0  0  0
 17 18  1  0  0  0
 18 19  1  0  0  0
M  CHG 1  28  -1
M  END
> <minimizedAffinity>
-7.39435

> <CNNscore>
0.7268068194

> <CNNaffinity>
6.4739470482

> <CNN_VS>
4.7053089142

> <CNNaffinity_variance>
0.5840468407

$$$$
