/media/chris/experiments/cd1a-new-docking/inputs/ligands/4x6c_ligand.pdb


 37 36  0  0  0  0  0  0  0  0999 V2000
  -42.3368   58.0496   65.6366 O   0  0  0  0  0  0  0  0  0  0  0  0
  -43.1770   58.8851   65.4993 C   0  0  0  0  0  0  0  0  0  0  0  0
  -44.5746   58.6137   65.0475 C   0  0  0  0  0  0  0  0  0  0  0  0
  -44.9309   57.1395   65.0824 C   0  0  0  0  0  0  0  0  0  0  0  0
  -46.1122   56.8399   65.9797 C   0  0  0  0  0  0  0  0  0  0  0  0
  -47.2149   57.8710   65.9284 C   0  0  0  0  0  0  0  0  0  0  0  0
  -48.3461   57.5092   65.0000 C   0  0  0  0  0  0  0  0  0  0  0  0
  -49.5152   58.4486   65.1264 C   0  0  0  0  0  0  0  0  0  0  0  0
  -49.5045   59.6200   64.1893 C   0  0  0  0  0  0  0  0  0  0  0  0
  -50.7186   59.7192   63.3664 C   0  0  0  0  0  0  0  0  0  0  0  0
  -51.0677   58.9674   62.3460 C   0  0  0  0  0  0  0  0  0  0  0  0
  -50.3377   57.8082   61.7733 C   0  0  0  0  0  0  0  0  0  0  0  0
  -50.7768   57.3795   60.3881 C   0  0  0  0  0  0  0  0  0  0  0  0
  -49.6189   57.0388   59.4907 C   0  0  0  0  0  0  0  0  0  0  0  0
  -48.8875   55.7737   59.8598 C   0  0  0  0  0  0  0  0  0  0  0  0
  -47.5662   55.6334   59.1364 C   0  0  0  0  0  0  0  0  0  0  0  0
  -47.1597   56.8302   58.3225 C   0  0  0  0  0  0  0  0  0  0  0  0
  -46.7509   56.4859   56.9464 C   0  0  0  0  0  0  0  0  0  0  0  0
  -47.8671   56.4402   56.0039 C   0  0  0  0  0  0  0  0  0  0  0  0
  -42.9758   60.1834   65.7248 O   0  0  0  0  0  0  0  0  0  0  0  0
  -41.8532   60.5503   66.5574 C   0  0  0  0  0  0  0  0  0  0  0  0
  -40.8200   61.1843   65.6547 C   0  0  0  0  0  0  0  0  0  0  0  0
  -40.6022   62.5366   66.0570 O   0  0  0  0  0  0  0  0  0  0  0  0
  -40.2334   62.5517   66.9540 H   0  0  0  0  0  0  0  0  0  0  0  0
  -39.4862   60.4787   65.6163 C   0  0  0  0  0  0  0  0  0  0  0  0
  -38.7872   60.8837   64.4220 O   0  0  0  0  0  0  0  0  0  0  0  0
  -37.3724   61.5999   64.5435 P   0  0  0  0  0  0  0  0  0  0  0  0
  -37.0676   62.1832   63.2214 O   0  0  0  0  0  0  0  0  0  0  0  0
  -37.4418   62.4862   65.7220 O   0  0  0  0  0  0  0  0  0  0  0  0
  -38.1023   63.1794   65.5668 H   0  0  0  0  0  0  0  0  0  0  0  0
  -36.2810   60.4913   64.8541 O   0  0  0  0  0  0  0  0  0  0  0  0
  -36.6018   59.0940   64.6577 C   0  0  0  0  0  0  0  0  0  0  0  0
  -36.2437   58.7849   63.2218 C   0  0  0  0  0  0  0  0  0  0  0  0
  -37.3270   58.1300   62.3880 N   0  0  0  0  0  0  0  0  0  0  0  0
  -36.7811   56.9831   61.5996 C   0  0  0  0  0  0  0  0  0  0  0  0
  -37.9017   59.1319   61.4384 C   0  0  0  0  0  0  0  0  0  0  0  0
  -38.4114   57.6212   63.2850 C   0  0  0  0  0  0  0  0  0  0  0  0
 34 33  1  0  0  0
 34 35  1  0  0  0
 34 36  1  0  0  0
 34 37  1  0  0  0
 22 23  1  0  0  0
 22 25  1  0  0  0
 22 21  1  0  0  0
 23 24  1  0  0  0
 27 26  1  0  0  0
 27 28  2  0  0  0
 27 31  1  0  0  0
 27 29  1  0  0  0
 25 26  1  0  0  0
 32 33  1  0  0  0
 32 31  1  0  0  0
 29 30  1  0  0  0
 20 21  1  0  0  0
 20  2  1  0  0  0
  1  2  2  0  0  0
  2  3  1  0  0  0
  3  4  1  0  0  0
  4  5  1  0  0  0
  5  6  1  0  0  0
  6  7  1  0  0  0
  7  8  1  0  0  0
  8  9  1  0  0  0
  9 10  1  0  0  0
 10 11  2  0  0  0
 11 12  1  0  0  0
 12 13  1  0  0  0
 13 14  1  0  0  0
 14 15  1  0  0  0
 15 16  1  0  0  0
 16 17  1  0  0  0
 17 18  1  0  0  0
 18 19  1  0  0  0
M  CHG 1  28  -1
M  END
> <minimizedAffinity>
-8.42892

> <CNNscore>
0.9476197958

> <CNNaffinity>
7.5029311180

> <CNN_VS>
7.1099262238

> <CNNaffinity_variance>
0.7301164865

$$$$
/media/chris/experiments/cd1a-new-docking/inputs/ligands/4x6c_ligand.pdb


 37 36  0  0  0  0  0  0  0  0999 V2000
  -41.9821   57.9896   65.6175 O   0  0  0  0  0  0  0  0  0  0  0  0
  -42.8386   58.8120   65.5035 C   0  0  0  0  0  0  0  0  0  0  0  0
  -44.2140   58.5359   64.9904 C   0  0  0  0  0  0  0  0  0  0  0  0
  -44.7446   57.1816   65.4216 C   0  0  0  0  0  0  0  0  0  0  0  0
  -46.0213   57.2787   66.2284 C   0  0  0  0  0  0  0  0  0  0  0  0
  -46.4519   58.6900   66.5519 C   0  0  0  0  0  0  0  0  0  0  0  0
  -47.7247   59.1127   65.8637 C   0  0  0  0  0  0  0  0  0  0  0  0
  -48.4858   57.9445   65.2966 C   0  0  0  0  0  0  0  0  0  0  0  0
  -49.9723   58.1258   65.2091 C   0  0  0  0  0  0  0  0  0  0  0  0
  -50.3761   59.5170   64.9585 C   0  0  0  0  0  0  0  0  0  0  0  0
  -50.8428   60.0353   63.8440 C   0  0  0  0  0  0  0  0  0  0  0  0
  -51.1050   59.3460   62.5554 C   0  0  0  0  0  0  0  0  0  0  0  0
  -49.9406   58.5622   61.9852 C   0  0  0  0  0  0  0  0  0  0  0  0
  -50.1252   58.2219   60.5318 C   0  0  0  0  0  0  0  0  0  0  0  0
  -50.0347   56.7515   60.2133 C   0  0  0  0  0  0  0  0  0  0  0  0
  -48.6616   56.3455   59.7248 C   0  0  0  0  0  0  0  0  0  0  0  0
  -48.1920   57.0610   58.4890 C   0  0  0  0  0  0  0  0  0  0  0  0
  -47.3880   56.2069   57.5927 C   0  0  0  0  0  0  0  0  0  0  0  0
  -47.6231   56.4710   56.1745 C   0  0  0  0  0  0  0  0  0  0  0  0
  -42.6778   60.0983   65.8137 O   0  0  0  0  0  0  0  0  0  0  0  0
  -41.3867   60.5072   66.3178 C   0  0  0  0  0  0  0  0  0  0  0  0
  -40.7476   61.3689   65.2532 C   0  0  0  0  0  0  0  0  0  0  0  0
  -40.0527   62.4520   65.8714 O   0  0  0  0  0  0  0  0  0  0  0  0
  -39.3301   62.1033   66.4167 H   0  0  0  0  0  0  0  0  0  0  0  0
  -39.7873   60.6475   64.3390 C   0  0  0  0  0  0  0  0  0  0  0  0
  -39.9364   61.1778   63.0065 O   0  0  0  0  0  0  0  0  0  0  0  0
  -39.0052   60.6371   61.8362 P   0  0  0  0  0  0  0  0  0  0  0  0
  -39.7666   60.7750   60.5783 O   0  0  0  0  0  0  0  0  0  0  0  0
  -37.7066   61.3262   61.9702 O   0  0  0  0  0  0  0  0  0  0  0  0
  -37.8287   62.2773   61.8240 H   0  0  0  0  0  0  0  0  0  0  0  0
  -38.7440   59.0921   62.0846 O   0  0  0  0  0  0  0  0  0  0  0  0
  -37.4312   58.5372   61.8343 C   0  0  0  0  0  0  0  0  0  0  0  0
  -37.1646   57.5759   62.9703 C   0  0  0  0  0  0  0  0  0  0  0  0
  -36.0070   57.9248   63.8845 N   0  0  0  0  0  0  0  0  0  0  0  0
  -34.7280   58.0319   63.1179 C   0  0  0  0  0  0  0  0  0  0  0  0
  -35.8529   56.8616   64.9245 C   0  0  0  0  0  0  0  0  0  0  0  0
  -36.2747   59.2358   64.5544 C   0  0  0  0  0  0  0  0  0  0  0  0
 34 33  1  0  0  0
 34 35  1  0  0  0
 34 36  1  0  0  0
 34 37  1  0  0  0
 22 23  1  0  0  0
 22 25  1  0  0  0
 22 21  1  0  0  0
 23 24  1  0  0  0
 27 26  1  0  0  0
 27 28  2  0  0  0
 27 31  1  0  0  0
 27 29  1  0  0  0
 25 26  1  0  0  0
 32 33  1  0  0  0
 32 31  1  0  0  0
 29 30  1  0  0  0
 20 21  1  0  0  0
 20  2  1  0  0  0
  1  2  2  0  0  0
  2  3  1  0  0  0
  3  4  1  0  0  0
  4  5  1  0  0  0
  5  6  1  0  0  0
  6  7  1  0  0  0
  7  8  1  0  0  0
  8  9  1  0  0  0
  9 10  1  0  0  0
 10 11  2  0  0  0
 11 12  1  0  0  0
 12 13  1  0  0  0
 13 14  1  0  0  0
 14 15  1  0  0  0
 15 16  1  0  0  0
 16 17  1  0  0  0
 17 18  1  0  0  0
 18 19  1  0  0  0
M  CHG 1  28  -1
M  END
> <minimizedAffinity>
-8.42512

> <CNNscore>
0.9441604018

> <CNNaffinity>
7.4136590958

> <CNN_VS>
6.9996833801

> <CNNaffinity_variance>
0.7569440007

$$$$
/media/chris/experiments/cd1a-new-docking/inputs/ligands/4x6c_ligand.pdb


 37 36  0  0  0  0  0  0  0  0999 V2000
  -42.6506   57.2461   65.7326 O   0  0  0  0  0  0  0  0  0  0  0  0
  -42.6041   58.4206   65.9358 C   0  0  0  0  0  0  0  0  0  0  0  0
  -43.7269   59.3700   65.6729 C   0  0  0  0  0  0  0  0  0  0  0  0
  -44.7931   58.7871   64.7647 C   0  0  0  0  0  0  0  0  0  0  0  0
  -46.0854   58.4845   65.4919 C   0  0  0  0  0  0  0  0  0  0  0  0
  -47.3100   58.4581   64.6078 C   0  0  0  0  0  0  0  0  0  0  0  0
  -48.3289   57.4215   65.0073 C   0  0  0  0  0  0  0  0  0  0  0  0
  -49.7164   57.9939   65.1195 C   0  0  0  0  0  0  0  0  0  0  0  0
  -49.8119   59.4840   64.9756 C   0  0  0  0  0  0  0  0  0  0  0  0
  -50.9054   59.9154   64.0928 C   0  0  0  0  0  0  0  0  0  0  0  0
  -50.8274   60.3038   62.8392 C   0  0  0  0  0  0  0  0  0  0  0  0
  -49.6180   60.3863   61.9819 C   0  0  0  0  0  0  0  0  0  0  0  0
  -49.6382   59.5203   60.7389 C   0  0  0  0  0  0  0  0  0  0  0  0
  -49.8379   58.0623   61.0495 C   0  0  0  0  0  0  0  0  0  0  0  0
  -49.9756   57.1741   59.8396 C   0  0  0  0  0  0  0  0  0  0  0  0
  -49.1439   55.9148   59.9448 C   0  0  0  0  0  0  0  0  0  0  0  0
  -47.9900   55.8359   58.9845 C   0  0  0  0  0  0  0  0  0  0  0  0
  -48.1705   56.6814   57.7880 C   0  0  0  0  0  0  0  0  0  0  0  0
  -47.9207   55.9733   56.5340 C   0  0  0  0  0  0  0  0  0  0  0  0
  -41.5324   59.0476   66.4206 O   0  0  0  0  0  0  0  0  0  0  0  0
  -41.5994   60.4857   66.5445 C   0  0  0  0  0  0  0  0  0  0  0  0
  -40.5413   61.0595   65.6305 C   0  0  0  0  0  0  0  0  0  0  0  0
  -40.4275   62.4644   65.8572 O   0  0  0  0  0  0  0  0  0  0  0  0
  -40.1246   62.6219   66.7652 H   0  0  0  0  0  0  0  0  0  0  0  0
  -39.1713   60.4421   65.7727 C   0  0  0  0  0  0  0  0  0  0  0  0
  -38.4355   60.6727   64.5543 O   0  0  0  0  0  0  0  0  0  0  0  0
  -37.2029   61.6776   64.5582 P   0  0  0  0  0  0  0  0  0  0  0  0
  -36.9694   62.0817   63.1571 O   0  0  0  0  0  0  0  0  0  0  0  0
  -37.5000   62.7146   65.5660 O   0  0  0  0  0  0  0  0  0  0  0  0
  -38.2811   63.2191   65.2901 H   0  0  0  0  0  0  0  0  0  0  0  0
  -35.9219   60.8884   65.0612 O   0  0  0  0  0  0  0  0  0  0  0  0
  -34.9813   61.5384   65.9482 C   0  0  0  0  0  0  0  0  0  0  0  0
  -34.0186   62.2866   65.0544 C   0  0  0  0  0  0  0  0  0  0  0  0
  -33.6304   63.6801   65.5071 N   0  0  0  0  0  0  0  0  0  0  0  0
  -34.6997   64.6714   65.1773 C   0  0  0  0  0  0  0  0  0  0  0  0
  -32.3672   64.0946   64.8229 C   0  0  0  0  0  0  0  0  0  0  0  0
  -33.4142   63.6842   66.9878 C   0  0  0  0  0  0  0  0  0  0  0  0
 34 33  1  0  0  0
 34 35  1  0  0  0
 34 36  1  0  0  0
 34 37  1  0  0  0
 22 23  1  0  0  0
 22 25  1  0  0  0
 22 21  1  0  0  0
 23 24  1  0  0  0
 27 26  1  0  0  0
 27 28  2  0  0  0
 27 31  1  0  0  0
 27 29  1  0  0  0
 25 26  1  0  0  0
 32 33  1  0  0  0
 32 31  1  0  0  0
 29 30  1  0  0  0
 20 21  1  0  0  0
 20  2  1  0  0  0
  1  2  2  0  0  0
  2  3  1  0  0  0
  3  4  1  0  0  0
  4  5  1  0  0  0
  5  6  1  0  0  0
  6  7  1  0  0  0
  7  8  1  0  0  0
  8  9  1  0  0  0
  9 10  1  0  0  0
 10 11  2  0  0  0
 11 12  1  0  0  0
 12 13  1  0  0  0
 13 14  1  0  0  0
 14 15  1  0  0  0
 15 16  1  0  0  0
 16 17  1  0  0  0
 17 18  1  0  0  0
 18 19  1  0  0  0
M  CHG 1  28  -1
M  END
> <minimizedAffinity>
-8.14605

> <CNNscore>
0.8094114065

> <CNNaffinity>
6.5121889114

> <CNN_VS>
5.2710399628

> <CNNaffinity_variance>
0.3092665970

$$$$
/media/chris/experiments/cd1a-new-docking/inputs/ligands/4x6c_ligand.pdb


 37 36  0  0  0  0  0  0  0  0999 V2000
  -40.2436   61.3116   66.0736 O   0  0  0  0  0  0  0  0  0  0  0  0
  -41.0313   60.7251   65.3966 C   0  0  0  0  0  0  0  0  0  0  0  0
  -42.3776   60.2753   65.8617 C   0  0  0  0  0  0  0  0  0  0  0  0
  -43.3746   60.1251   64.7282 C   0  0  0  0  0  0  0  0  0  0  0  0
  -44.3247   58.9643   64.9291 C   0  0  0  0  0  0  0  0  0  0  0  0
  -45.4246   59.2219   65.9319 C   0  0  0  0  0  0  0  0  0  0  0  0
  -46.8087   59.2157   65.3348 C   0  0  0  0  0  0  0  0  0  0  0  0
  -47.3134   60.6029   65.0411 C   0  0  0  0  0  0  0  0  0  0  0  0
  -48.4220   60.6851   64.0339 C   0  0  0  0  0  0  0  0  0  0  0  0
  -49.6579   60.0203   64.4719 C   0  0  0  0  0  0  0  0  0  0  0  0
  -50.2290   58.9541   63.9567 C   0  0  0  0  0  0  0  0  0  0  0  0
  -49.7626   58.1304   62.8129 C   0  0  0  0  0  0  0  0  0  0  0  0
  -50.6786   58.1100   61.6063 C   0  0  0  0  0  0  0  0  0  0  0  0
  -50.3027   57.0486   60.6091 C   0  0  0  0  0  0  0  0  0  0  0  0
  -48.8293   56.9668   60.3021 C   0  0  0  0  0  0  0  0  0  0  0  0
  -48.5100   55.9206   59.2571 C   0  0  0  0  0  0  0  0  0  0  0  0
  -47.1296   56.0133   58.6692 C   0  0  0  0  0  0  0  0  0  0  0  0
  -47.0819   56.7950   57.4179 C   0  0  0  0  0  0  0  0  0  0  0  0
  -48.0380   56.3378   56.4113 C   0  0  0  0  0  0  0  0  0  0  0  0
  -40.8094   60.3835   64.1274 O   0  0  0  0  0  0  0  0  0  0  0  0
  -40.2118   61.3760   63.2637 C   0  0  0  0  0  0  0  0  0  0  0  0
  -39.0872   60.6953   62.5178 C   0  0  0  0  0  0  0  0  0  0  0  0
  -39.3230   60.7884   61.1129 O   0  0  0  0  0  0  0  0  0  0  0  0
  -39.3100   61.7203   60.8439 H   0  0  0  0  0  0  0  0  0  0  0  0
  -37.7088   61.2387   62.8058 C   0  0  0  0  0  0  0  0  0  0  0  0
  -37.7467   61.9429   64.0634 O   0  0  0  0  0  0  0  0  0  0  0  0
  -36.8040   61.4749   65.2556 P   0  0  0  0  0  0  0  0  0  0  0  0
  -36.7271   62.5969   66.2127 O   0  0  0  0  0  0  0  0  0  0  0  0
  -37.3150   60.1692   65.7174 O   0  0  0  0  0  0  0  0  0  0  0  0
  -38.2063   60.2819   66.0832 H   0  0  0  0  0  0  0  0  0  0  0  0
  -35.3501   61.2289   64.6702 O   0  0  0  0  0  0  0  0  0  0  0  0
  -34.6323   60.0211   65.0164 C   0  0  0  0  0  0  0  0  0  0  0  0
  -34.3854   59.2980   63.7118 C   0  0  0  0  0  0  0  0  0  0  0  0
  -32.9729   58.7993   63.4801 N   0  0  0  0  0  0  0  0  0  0  0  0
  -32.9330   57.7828   62.3847 C   0  0  0  0  0  0  0  0  0  0  0  0
  -32.4520   58.1718   64.7333 C   0  0  0  0  0  0  0  0  0  0  0  0
  -32.0919   59.9476   63.0998 C   0  0  0  0  0  0  0  0  0  0  0  0
 34 33  1  0  0  0
 34 35  1  0  0  0
 34 36  1  0  0  0
 34 37  1  0  0  0
 22 23  1  0  0  0
 22 25  1  0  0  0
 22 21  1  0  0  0
 23 24  1  0  0  0
 27 26  1  0  0  0
 27 28  2  0  0  0
 27 31  1  0  0  0
 27 29  1  0  0  0
 25 26  1  0  0  0
 32 33  1  0  0  0
 32 31  1  0  0  0
 29 30  1  0  0  0
 20 21  1  0  0  0
 20  2  1  0  0  0
  1  2  2  0  0  0
  2  3  1  0  0  0
  3  4  1  0  0  0
  4  5  1  0  0  0
  5  6  1  0  0  0
  6  7  1  0  0  0
  7  8  1  0  0  0
  8  9  1  0  0  0
  9 10  1  0  0  0
 10 11  2  0  0  0
 11 12  1  0  0  0
 12 13  1  0  0  0
 13 14  1  0  0  0
 14 15  1  0  0  0
 15 16  1  0  0  0
 16 17  1  0  0  0
 17 18  1  0  0  0
 18 19  1  0  0  0
M  CHG 1  28  -1
M  END
> <minimizedAffinity>
-7.80527

> <CNNscore>
0.7305164933

> <CNNaffinity>
6.5103149414

> <CNN_VS>
4.7558922768

> <CNNaffinity_variance>
0.6657987237

$$$$
/media/chris/experiments/cd1a-new-docking/inputs/ligands/4x6c_ligand.pdb


 37 36  0  0  0  0  0  0  0  0999 V2000
  -40.3030   59.3734   65.0977 O   0  0  0  0  0  0  0  0  0  0  0  0
  -41.2991   59.9246   64.7417 C   0  0  0  0  0  0  0  0  0  0  0  0
  -42.5402   60.0441   65.5643 C   0  0  0  0  0  0  0  0  0  0  0  0
  -43.8009   59.7310   64.7805 C   0  0  0  0  0  0  0  0  0  0  0  0
  -44.8833   59.1033   65.6318 C   0  0  0  0  0  0  0  0  0  0  0  0
  -45.0351   57.6112   65.4517 C   0  0  0  0  0  0  0  0  0  0  0  0
  -46.4423   57.1116   65.6579 C   0  0  0  0  0  0  0  0  0  0  0  0
  -47.4433   58.2327   65.7393 C   0  0  0  0  0  0  0  0  0  0  0  0
  -48.5673   58.1657   64.7482 C   0  0  0  0  0  0  0  0  0  0  0  0
  -49.7926   58.8337   65.2104 C   0  0  0  0  0  0  0  0  0  0  0  0
  -50.6306   59.5630   64.5074 C   0  0  0  0  0  0  0  0  0  0  0  0
  -50.5700   59.8830   63.0588 C   0  0  0  0  0  0  0  0  0  0  0  0
  -50.8818   58.7336   62.1223 C   0  0  0  0  0  0  0  0  0  0  0  0
  -49.8424   58.5599   61.0492 C   0  0  0  0  0  0  0  0  0  0  0  0
  -50.1774   57.5201   60.0108 C   0  0  0  0  0  0  0  0  0  0  0  0
  -49.3392   56.2684   60.1494 C   0  0  0  0  0  0  0  0  0  0  0  0
  -48.0551   56.2764   59.3679 C   0  0  0  0  0  0  0  0  0  0  0  0
  -48.1366   57.0664   58.1236 C   0  0  0  0  0  0  0  0  0  0  0  0
  -46.8763   57.1175   57.3851 C   0  0  0  0  0  0  0  0  0  0  0  0
  -41.4405   60.5046   63.5500 O   0  0  0  0  0  0  0  0  0  0  0  0
  -40.3003   61.2103   63.0114 C   0  0  0  0  0  0  0  0  0  0  0  0
  -39.8933   60.4939   61.7444 C   0  0  0  0  0  0  0  0  0  0  0  0
  -40.4902   61.1398   60.6197 O   0  0  0  0  0  0  0  0  0  0  0  0
  -40.1491   62.0450   60.5482 H   0  0  0  0  0  0  0  0  0  0  0  0
  -38.4049   60.4081   61.5090 C   0  0  0  0  0  0  0  0  0  0  0  0
  -38.0825   59.0651   61.0950 O   0  0  0  0  0  0  0  0  0  0  0  0
  -37.4201   58.0595   62.1338 P   0  0  0  0  0  0  0  0  0  0  0  0
  -38.4827   57.6436   63.0714 O   0  0  0  0  0  0  0  0  0  0  0  0
  -36.7153   57.0312   61.3434 O   0  0  0  0  0  0  0  0  0  0  0  0
  -37.3593   56.5248   60.8241 H   0  0  0  0  0  0  0  0  0  0  0  0
  -36.3209   58.8522   62.9586 O   0  0  0  0  0  0  0  0  0  0  0  0
  -36.4090   58.9084   64.4019 C   0  0  0  0  0  0  0  0  0  0  0  0
  -36.6487   60.3610   64.7457 C   0  0  0  0  0  0  0  0  0  0  0  0
  -35.4409   61.1444   65.2201 N   0  0  0  0  0  0  0  0  0  0  0  0
  -35.6964   61.7752   66.5512 C   0  0  0  0  0  0  0  0  0  0  0  0
  -35.1248   62.2225   64.2335 C   0  0  0  0  0  0  0  0  0  0  0  0
  -34.2650   60.2272   65.3430 C   0  0  0  0  0  0  0  0  0  0  0  0
 34 33  1  0  0  0
 34 35  1  0  0  0
 34 36  1  0  0  0
 34 37  1  0  0  0
 22 23  1  0  0  0
 22 25  1  0  0  0
 22 21  1  0  0  0
 23 24  1  0  0  0
 27 26  1  0  0  0
 27 28  2  0  0  0
 27 31  1  0  0  0
 27 29  1  0  0  0
 25 26  1  0  0  0
 32 33  1  0  0  0
 32 31  1  0  0  0
 29 30  1  0  0  0
 20 21  1  0  0  0
 20  2  1  0  0  0
  1  2  2  0  0  0
  2  3  1  0  0  0
  3  4  1  0  0  0
  4  5  1  0  0  0
  5  6  1  0  0  0
  6  7  1  0  0  0
  7  8  1  0  0  0
  8  9  1  0  0  0
  9 10  1  0  0  0
 10 11  2  0  0  0
 11 12  1  0  0  0
 12 13  1  0  0  0
 13 14  1  0  0  0
 14 15  1  0  0  0
 15 16  1  0  0  0
 16 17  1  0  0  0
 17 18  1  0  0  0
 18 19  1  0  0  0
M  CHG 1  28  -1
M  END
> <minimizedAffinity>
-7.90193

> <CNNscore>
0.7193826437

> <CNNaffinity>
6.8395752907

> <CNN_VS>
4.9202718735

> <CNNaffinity_variance>
0.8271231651

$$$$
/media/chris/experiments/cd1a-new-docking/inputs/ligands/4x6c_ligand.pdb


 37 36  0  0  0  0  0  0  0  0999 V2000
  -40.9395   58.5300   65.2174 O   0  0  0  0  0  0  0  0  0  0  0  0
  -41.3468   59.6419   65.3617 C   0  0  0  0  0  0  0  0  0  0  0  0
  -42.7878   60.0301   65.2988 C   0  0  0  0  0  0  0  0  0  0  0  0
  -43.7146   58.9472   65.8183 C   0  0  0  0  0  0  0  0  0  0  0  0
  -44.9794   58.8109   64.9984 C   0  0  0  0  0  0  0  0  0  0  0  0
  -46.2450   59.1871   65.7323 C   0  0  0  0  0  0  0  0  0  0  0  0
  -47.4391   59.3768   64.8321 C   0  0  0  0  0  0  0  0  0  0  0  0
  -48.6955   59.6831   65.6021 C   0  0  0  0  0  0  0  0  0  0  0  0
  -49.9452   59.0402   65.0774 C   0  0  0  0  0  0  0  0  0  0  0  0
  -50.6367   59.8509   64.0646 C   0  0  0  0  0  0  0  0  0  0  0  0
  -50.9812   59.5002   62.8453 C   0  0  0  0  0  0  0  0  0  0  0  0
  -50.7820   58.1871   62.1816 C   0  0  0  0  0  0  0  0  0  0  0  0
  -49.4666   58.0182   61.4492 C   0  0  0  0  0  0  0  0  0  0  0  0
  -49.5767   58.3194   59.9797 C   0  0  0  0  0  0  0  0  0  0  0  0
  -49.4678   57.1148   59.0804 C   0  0  0  0  0  0  0  0  0  0  0  0
  -48.6347   56.0081   59.6887 C   0  0  0  0  0  0  0  0  0  0  0  0
  -47.4333   55.6030   58.8811 C   0  0  0  0  0  0  0  0  0  0  0  0
  -47.7187   55.4748   57.4384 C   0  0  0  0  0  0  0  0  0  0  0  0
  -46.8046   56.2431   56.5956 C   0  0  0  0  0  0  0  0  0  0  0  0
  -40.5628   60.6950   65.5919 O   0  0  0  0  0  0  0  0  0  0  0  0
  -39.9700   61.3489   64.4477 C   0  0  0  0  0  0  0  0  0  0  0  0
  -38.4851   61.4453   64.7120 C   0  0  0  0  0  0  0  0  0  0  0  0
  -38.2308   61.1983   66.0950 O   0  0  0  0  0  0  0  0  0  0  0  0
  -38.4932   60.2907   66.3149 H   0  0  0  0  0  0  0  0  0  0  0  0
  -37.6288   60.5076   63.8960 C   0  0  0  0  0  0  0  0  0  0  0  0
  -37.1970   59.4249   64.7447 O   0  0  0  0  0  0  0  0  0  0  0  0
  -37.2528   57.9307   64.2029 P   0  0  0  0  0  0  0  0  0  0  0  0
  -36.7610   57.0581   65.2881 O   0  0  0  0  0  0  0  0  0  0  0  0
  -38.6135   57.7196   63.6709 O   0  0  0  0  0  0  0  0  0  0  0  0
  -39.2572   57.7874   64.3933 H   0  0  0  0  0  0  0  0  0  0  0  0
  -36.2476   57.8087   62.9816 O   0  0  0  0  0  0  0  0  0  0  0  0
  -34.8941   57.3504   63.2096 C   0  0  0  0  0  0  0  0  0  0  0  0
  -33.9926   58.4434   62.6821 C   0  0  0  0  0  0  0  0  0  0  0  0
  -33.1232   59.1460   63.7059 N   0  0  0  0  0  0  0  0  0  0  0  0
  -32.7413   58.2197   64.8154 C   0  0  0  0  0  0  0  0  0  0  0  0
  -33.8701   60.3040   64.2861 C   0  0  0  0  0  0  0  0  0  0  0  0
  -31.8752   59.6435   63.0469 C   0  0  0  0  0  0  0  0  0  0  0  0
 34 33  1  0  0  0
 34 35  1  0  0  0
 34 36  1  0  0  0
 34 37  1  0  0  0
 22 23  1  0  0  0
 22 25  1  0  0  0
 22 21  1  0  0  0
 23 24  1  0  0  0
 27 26  1  0  0  0
 27 28  2  0  0  0
 27 31  1  0  0  0
 27 29  1  0  0  0
 25 26  1  0  0  0
 32 33  1  0  0  0
 32 31  1  0  0  0
 29 30  1  0  0  0
 20 21  1  0  0  0
 20  2  1  0  0  0
  1  2  2  0  0  0
  2  3  1  0  0  0
  3  4  1  0  0  0
  4  5  1  0  0  0
  5  6  1  0  0  0
  6  7  1  0  0  0
  7  8  1  0  0  0
  8  9  1  0  0  0
  9 10  1  0  0  0
 10 11  2  0  0  0
 11 12  1  0  0  0
 12 13  1  0  0  0
 13 14  1  0  0  0
 14 15  1  0  0  0
 15 16  1  0  0  0
 16 17  1  0  0  0
 17 18  1  0  0  0
 18 19  1  0  0  0
M  CHG 1  28  -1
M  END
> <minimizedAffinity>
-7.74081

> <CNNscore>
0.6552508473

> <CNNaffinity>
6.3765888214

> <CNN_VS>
4.1782650948

> <CNNaffinity_variance>
0.6235278845

$$$$
/media/chris/experiments/cd1a-new-docking/inputs/ligands/4x6c_ligand.pdb


 37 36  0  0  0  0  0  0  0  0999 V2000
  -39.0891   57.9599   64.3074 O   0  0  0  0  0  0  0  0  0  0  0  0
  -39.5533   59.0575   64.2561 C   0  0  0  0  0  0  0  0  0  0  0  0
  -40.3779   59.6789   65.3355 C   0  0  0  0  0  0  0  0  0  0  0  0
  -41.7402   60.1361   64.8492 C   0  0  0  0  0  0  0  0  0  0  0  0
  -42.8815   59.5208   65.6298 C   0  0  0  0  0  0  0  0  0  0  0  0
  -42.9022   58.0104   65.6230 C   0  0  0  0  0  0  0  0  0  0  0  0
  -44.2226   57.4201   65.1981 C   0  0  0  0  0  0  0  0  0  0  0  0
  -45.3489   58.4153   65.2790 C   0  0  0  0  0  0  0  0  0  0  0  0
  -46.6916   57.9047   64.8469 C   0  0  0  0  0  0  0  0  0  0  0  0
  -47.8144   58.6677   65.4111 C   0  0  0  0  0  0  0  0  0  0  0  0
  -48.8196   59.2211   64.7694 C   0  0  0  0  0  0  0  0  0  0  0  0
  -49.0947   59.2002   63.3105 C   0  0  0  0  0  0  0  0  0  0  0  0
  -49.8049   57.9642   62.7974 C   0  0  0  0  0  0  0  0  0  0  0  0
  -50.8162   58.2764   61.7288 C   0  0  0  0  0  0  0  0  0  0  0  0
  -50.9522   57.2195   60.6628 C   0  0  0  0  0  0  0  0  0  0  0  0
  -50.0670   57.4843   59.4649 C   0  0  0  0  0  0  0  0  0  0  0  0
  -48.7985   56.6787   59.4245 C   0  0  0  0  0  0  0  0  0  0  0  0
  -48.2050   56.5959   58.0754 C   0  0  0  0  0  0  0  0  0  0  0  0
  -47.0796   55.6670   57.9926 C   0  0  0  0  0  0  0  0  0  0  0  0
  -39.4032   59.8785   63.2167 O   0  0  0  0  0  0  0  0  0  0  0  0
  -38.0984   59.9420   62.5990 C   0  0  0  0  0  0  0  0  0  0  0  0
  -38.1323   59.0276   61.3960 C   0  0  0  0  0  0  0  0  0  0  0  0
  -38.5153   59.7745   60.2412 O   0  0  0  0  0  0  0  0  0  0  0  0
  -37.8450   60.4509   60.0566 H   0  0  0  0  0  0  0  0  0  0  0  0
  -36.8338   58.3193   61.0953 C   0  0  0  0  0  0  0  0  0  0  0  0
  -36.6287   57.2956   62.0897 O   0  0  0  0  0  0  0  0  0  0  0  0
  -35.3720   57.3827   63.0604 P   0  0  0  0  0  0  0  0  0  0  0  0
  -35.7938   56.8341   64.3651 O   0  0  0  0  0  0  0  0  0  0  0  0
  -34.2388   56.7581   62.3498 O   0  0  0  0  0  0  0  0  0  0  0  0
  -34.4263   55.8173   62.2064 H   0  0  0  0  0  0  0  0  0  0  0  0
  -35.0100   58.9137   63.2660 O   0  0  0  0  0  0  0  0  0  0  0  0
  -34.6401   59.3931   64.5802 C   0  0  0  0  0  0  0  0  0  0  0  0
  -34.5233   60.8952   64.4552 C   0  0  0  0  0  0  0  0  0  0  0  0
  -35.4368   61.7138   65.3457 N   0  0  0  0  0  0  0  0  0  0  0  0
  -34.7052   62.2228   66.5459 C   0  0  0  0  0  0  0  0  0  0  0  0
  -36.5783   60.8651   65.8064 C   0  0  0  0  0  0  0  0  0  0  0  0
  -35.9691   62.8830   64.5782 C   0  0  0  0  0  0  0  0  0  0  0  0
 34 33  1  0  0  0
 34 35  1  0  0  0
 34 36  1  0  0  0
 34 37  1  0  0  0
 22 23  1  0  0  0
 22 25  1  0  0  0
 22 21  1  0  0  0
 23 24  1  0  0  0
 27 26  1  0  0  0
 27 28  2  0  0  0
 27 31  1  0  0  0
 27 29  1  0  0  0
 25 26  1  0  0  0
 32 33  1  0  0  0
 32 31  1  0  0  0
 29 30  1  0  0  0
 20 21  1  0  0  0
 20  2  1  0  0  0
  1  2  2  0  0  0
  2  3  1  0  0  0
  3  4  1  0  0  0
  4  5  1  0  0  0
  5  6  1  0  0  0
  6  7  1  0  0  0
  7  8  1  0  0  0
  8  9  1  0  0  0
  9 10  1  0  0  0
 10 11  2  0  0  0
 11 12  1  0  0  0
 12 13  1  0  0  0
 13 14  1  0  0  0
 14 15  1  0  0  0
 15 16  1  0  0  0
 16 17  1  0  0  0
 17 18  1  0  0  0
 18 19  1  0  0  0
M  CHG 1  28  -1
M  END
> <minimizedAffinity>
-7.46722

> <CNNscore>
0.6256452799

> <CNNaffinity>
6.5664243698

> <CNN_VS>
4.1082525253

> <CNNaffinity_variance>
0.5665325522

$$$$
/media/chris/experiments/cd1a-new-docking/inputs/ligands/4x6c_ligand.pdb


 37 36  0  0  0  0  0  0  0  0999 V2000
  -42.0101   59.9373   67.2505 O   0  0  0  0  0  0  0  0  0  0  0  0
  -41.8298   59.8906   66.0723 C   0  0  0  0  0  0  0  0  0  0  0  0
  -42.8551   59.4585   65.0757 C   0  0  0  0  0  0  0  0  0  0  0  0
  -44.2740   59.7616   65.5187 C   0  0  0  0  0  0  0  0  0  0  0  0
  -45.1886   58.5590   65.4299 C   0  0  0  0  0  0  0  0  0  0  0  0
  -46.3046   58.5446   66.4478 C   0  0  0  0  0  0  0  0  0  0  0  0
  -47.6069   59.1031   65.9334 C   0  0  0  0  0  0  0  0  0  0  0  0
  -48.2939   58.1678   64.9749 C   0  0  0  0  0  0  0  0  0  0  0  0
  -49.7906   58.1331   65.0702 C   0  0  0  0  0  0  0  0  0  0  0  0
  -50.3950   59.4630   65.2356 C   0  0  0  0  0  0  0  0  0  0  0  0
  -50.9694   60.2100   64.3189 C   0  0  0  0  0  0  0  0  0  0  0  0
  -51.1774   59.8955   62.8828 C   0  0  0  0  0  0  0  0  0  0  0  0
  -50.0724   60.3453   61.9490 C   0  0  0  0  0  0  0  0  0  0  0  0
  -49.6135   59.2527   61.0228 C   0  0  0  0  0  0  0  0  0  0  0  0
  -50.3577   57.9501   61.1684 C   0  0  0  0  0  0  0  0  0  0  0  0
  -50.2292   57.0670   59.9469 C   0  0  0  0  0  0  0  0  0  0  0  0
  -49.1859   55.9897   60.0512 C   0  0  0  0  0  0  0  0  0  0  0  0
  -47.9235   56.3347   59.3682 C   0  0  0  0  0  0  0  0  0  0  0  0
  -48.1227   56.9686   58.0664 C   0  0  0  0  0  0  0  0  0  0  0  0
  -40.6773   60.2125   65.4850 O   0  0  0  0  0  0  0  0  0  0  0  0
  -40.2966   59.4662   64.3076 C   0  0  0  0  0  0  0  0  0  0  0  0
  -38.9324   58.8750   64.5791 C   0  0  0  0  0  0  0  0  0  0  0  0
  -38.8817   57.5419   64.0708 O   0  0  0  0  0  0  0  0  0  0  0  0
  -38.9897   57.5591   63.1069 H   0  0  0  0  0  0  0  0  0  0  0  0
  -37.7738   59.6495   63.9995 C   0  0  0  0  0  0  0  0  0  0  0  0
  -37.0601   60.2843   65.0796 O   0  0  0  0  0  0  0  0  0  0  0  0
  -37.1346   61.8637   65.2504 P   0  0  0  0  0  0  0  0  0  0  0  0
  -36.6087   62.4590   64.0054 O   0  0  0  0  0  0  0  0  0  0  0  0
  -38.5118   62.1833   65.6748 O   0  0  0  0  0  0  0  0  0  0  0  0
  -39.1319   61.9411   64.9694 H   0  0  0  0  0  0  0  0  0  0  0  0
  -36.1693   62.2795   66.4388 O   0  0  0  0  0  0  0  0  0  0  0  0
  -34.7647   61.9372   66.3752 C   0  0  0  0  0  0  0  0  0  0  0  0
  -34.0136   63.2111   66.6894 C   0  0  0  0  0  0  0  0  0  0  0  0
  -33.4356   63.9570   65.5031 N   0  0  0  0  0  0  0  0  0  0  0  0
  -34.3743   65.0170   65.0234 C   0  0  0  0  0  0  0  0  0  0  0  0
  -33.1850   62.9984   64.3833 C   0  0  0  0  0  0  0  0  0  0  0  0
  -32.1451   64.6035   65.8978 C   0  0  0  0  0  0  0  0  0  0  0  0
 34 33  1  0  0  0
 34 35  1  0  0  0
 34 36  1  0  0  0
 34 37  1  0  0  0
 22 23  1  0  0  0
 22 25  1  0  0  0
 22 21  1  0  0  0
 23 24  1  0  0  0
 27 26  1  0  0  0
 27 28  2  0  0  0
 27 31  1  0  0  0
 27 29  1  0  0  0
 25 26  1  0  0  0
 32 33  1  0  0  0
 32 31  1  0  0  0
 29 30  1  0  0  0
 20 21  1  0  0  0
 20  2  1  0  0  0
  1  2  2  0  0  0
  2  3  1  0  0  0
  3  4  1  0  0  0
  4  5  1  0  0  0
  5  6  1  0  0  0
  6  7  1  0  0  0
  7  8  1  0  0  0
  8  9  1  0  0  0
  9 10  1  0  0  0
 10 11  2  0  0  0
 11 12  1  0  0  0
 12 13  1  0  0  0
 13 14  1  0  0  0
 14 15  1  0  0  0
 15 16  1  0  0  0
 16 17  1  0  0  0
 17 18  1  0  0  0
 18 19  1  0  0  0
M  CHG 1  28  -1
M  END
> <minimizedAffinity>
-8.13562

> <CNNscore>
0.5774512887

> <CNNaffinity>
6.1692056656

> <CNN_VS>
3.5624158382

> <CNNaffinity_variance>
0.3555908203

$$$$
/media/chris/experiments/cd1a-new-docking/inputs/ligands/4x6c_ligand.pdb


 37 36  0  0  0  0  0  0  0  0999 V2000
  -38.2681   57.7869   63.4246 O   0  0  0  0  0  0  0  0  0  0  0  0
  -38.8876   58.6690   63.9356 C   0  0  0  0  0  0  0  0  0  0  0  0
  -40.0418   58.4662   64.8618 C   0  0  0  0  0  0  0  0  0  0  0  0
  -40.8822   59.7165   65.0411 C   0  0  0  0  0  0  0  0  0  0  0  0
  -41.4882   59.8258   66.4236 C   0  0  0  0  0  0  0  0  0  0  0  0
  -42.9919   59.9693   66.4385 C   0  0  0  0  0  0  0  0  0  0  0  0
  -43.6290   59.8594   65.0768 C   0  0  0  0  0  0  0  0  0  0  0  0
  -44.6155   58.7257   64.9945 C   0  0  0  0  0  0  0  0  0  0  0  0
  -46.0597   59.1208   65.0870 C   0  0  0  0  0  0  0  0  0  0  0  0
  -46.9574   57.9887   65.3589 C   0  0  0  0  0  0  0  0  0  0  0  0
  -48.0553   57.6550   64.7174 C   0  0  0  0  0  0  0  0  0  0  0  0
  -48.6621   58.3209   63.5372 C   0  0  0  0  0  0  0  0  0  0  0  0
  -50.1086   57.9663   63.2592 C   0  0  0  0  0  0  0  0  0  0  0  0
  -50.5919   58.4923   61.9356 C   0  0  0  0  0  0  0  0  0  0  0  0
  -50.9265   57.4298   60.9202 C   0  0  0  0  0  0  0  0  0  0  0  0
  -49.6945   56.7667   60.3447 C   0  0  0  0  0  0  0  0  0  0  0  0
  -49.0539   57.5041   59.2020 C   0  0  0  0  0  0  0  0  0  0  0  0
  -48.4620   56.6070   58.1900 C   0  0  0  0  0  0  0  0  0  0  0  0
  -47.2020   57.1036   57.6404 C   0  0  0  0  0  0  0  0  0  0  0  0
  -38.6350   59.9630   63.7396 O   0  0  0  0  0  0  0  0  0  0  0  0
  -37.4153   60.4976   64.3006 C   0  0  0  0  0  0  0  0  0  0  0  0
  -37.6093   61.9897   64.4429 C   0  0  0  0  0  0  0  0  0  0  0  0
  -37.9991   62.2933   65.7823 O   0  0  0  0  0  0  0  0  0  0  0  0
  -37.2847   62.0473   66.3906 H   0  0  0  0  0  0  0  0  0  0  0  0
  -36.4016   62.8267   64.0976 C   0  0  0  0  0  0  0  0  0  0  0  0
  -35.8423   63.3508   65.3188 O   0  0  0  0  0  0  0  0  0  0  0  0
  -34.5850   62.6348   65.9788 P   0  0  0  0  0  0  0  0  0  0  0  0
  -33.6049   63.6915   66.3013 O   0  0  0  0  0  0  0  0  0  0  0  0
  -35.1019   61.7779   67.0639 O   0  0  0  0  0  0  0  0  0  0  0  0
  -35.5086   62.3324   67.7480 H   0  0  0  0  0  0  0  0  0  0  0  0
  -33.9345   61.6769   64.8942 O   0  0  0  0  0  0  0  0  0  0  0  0
  -33.8550   60.2547   65.1489 C   0  0  0  0  0  0  0  0  0  0  0  0
  -33.8938   59.5884   63.7923 C   0  0  0  0  0  0  0  0  0  0  0  0
  -32.5941   58.9748   63.3108 N   0  0  0  0  0  0  0  0  0  0  0  0
  -31.5691   60.0282   63.0379 C   0  0  0  0  0  0  0  0  0  0  0  0
  -32.8394   58.2089   62.0503 C   0  0  0  0  0  0  0  0  0  0  0  0
  -32.0601   58.0469   64.3564 C   0  0  0  0  0  0  0  0  0  0  0  0
 34 33  1  0  0  0
 34 35  1  0  0  0
 34 36  1  0  0  0
 34 37  1  0  0  0
 22 23  1  0  0  0
 22 25  1  0  0  0
 22 21  1  0  0  0
 23 24  1  0  0  0
 27 26  1  0  0  0
 27 28  2  0  0  0
 27 31  1  0  0  0
 27 29  1  0  0  0
 25 26  1  0  0  0
 32 33  1  0  0  0
 32 31  1  0  0  0
 29 30  1  0  0  0
 20 21  1  0  0  0
 20  2  1  0  0  0
  1  2  2  0  0  0
  2  3  1  0  0  0
  3  4  1  0  0  0
  4  5  1  0  0  0
  5  6  1  0  0  0
  6  7  1  0  0  0
  7  8  1  0  0  0
  8  9  1  0  0  0
  9 10  1  0  0  0
 10 11  2  0  0  0
 11 12  1  0  0  0
 12 13  1  0  0  0
 13 14  1  0  0  0
 14 15  1  0  0  0
 15 16  1  0  0  0
 16 17  1  0  0  0
 17 18  1  0  0  0
 18 19  1  0  0  0
M  CHG 1  28  -1
M  END
> <minimizedAffinity>
-7.67908

> <CNNscore>
0.5699182153

> <CNNaffinity>
6.2772259712

> <CNN_VS>
3.5775053501

> <CNNaffinity_variance>
0.2737640142

$$$$
