/media/chris/experiments/cd1a-new-docking/inputs/ligands/4x6c_ligand.pdb


 37 36  0  0  0  0  0  0  0  0999 V2000
  -42.5393   60.1150   66.8936 O   0  0  0  0  0  0  0  0  0  0  0  0
  -42.1922   59.3224   66.0725 C   0  0  0  0  0  0  0  0  0  0  0  0
  -43.0426   58.2057   65.5616 C   0  0  0  0  0  0  0  0  0  0  0  0
  -44.1640   58.6826   64.6581 C   0  0  0  0  0  0  0  0  0  0  0  0
  -45.5360   58.3013   65.1704 C   0  0  0  0  0  0  0  0  0  0  0  0
  -46.3282   59.4483   65.7523 C   0  0  0  0  0  0  0  0  0  0  0  0
  -47.7674   59.1093   66.0456 C   0  0  0  0  0  0  0  0  0  0  0  0
  -48.7269   59.8837   65.1824 C   0  0  0  0  0  0  0  0  0  0  0  0
  -50.1047   59.3017   65.0688 C   0  0  0  0  0  0  0  0  0  0  0  0
  -51.0139   60.1126   64.2461 C   0  0  0  0  0  0  0  0  0  0  0  0
  -51.1393   60.1102   62.9373 C   0  0  0  0  0  0  0  0  0  0  0  0
  -50.4115   59.2720   61.9512 C   0  0  0  0  0  0  0  0  0  0  0  0
  -50.8379   57.8196   61.8878 C   0  0  0  0  0  0  0  0  0  0  0  0
  -50.7140   57.2373   60.5066 C   0  0  0  0  0  0  0  0  0  0  0  0
  -49.6822   57.9034   59.6327 C   0  0  0  0  0  0  0  0  0  0  0  0
  -49.1358   56.9772   58.5687 C   0  0  0  0  0  0  0  0  0  0  0  0
  -48.2723   55.8599   59.0843 C   0  0  0  0  0  0  0  0  0  0  0  0
  -47.1060   55.5815   58.2232 C   0  0  0  0  0  0  0  0  0  0  0  0
  -47.4650   55.2871   56.8374 C   0  0  0  0  0  0  0  0  0  0  0  0
  -40.9869   59.3235   65.5034 O   0  0  0  0  0  0  0  0  0  0  0  0
  -40.7771   60.2149   64.3855 C   0  0  0  0  0  0  0  0  0  0  0  0
  -39.8745   61.3269   64.8683 C   0  0  0  0  0  0  0  0  0  0  0  0
  -40.6454   62.2851   65.5932 O   0  0  0  0  0  0  0  0  0  0  0  0
  -41.0188   61.8674   66.3851 H   0  0  0  0  0  0  0  0  0  0  0  0
  -38.7250   60.8832   65.7405 C   0  0  0  0  0  0  0  0  0  0  0  0
  -37.5403   60.7871   64.9243 O   0  0  0  0  0  0  0  0  0  0  0  0
  -36.4476   61.9411   64.9853 P   0  0  0  0  0  0  0  0  0  0  0  0
  -36.6106   62.7565   63.7648 O   0  0  0  0  0  0  0  0  0  0  0  0
  -36.5820   62.5876   66.3055 O   0  0  0  0  0  0  0  0  0  0  0  0
  -37.4518   63.0119   66.3707 H   0  0  0  0  0  0  0  0  0  0  0  0
  -35.0122   61.2672   64.9370 O   0  0  0  0  0  0  0  0  0  0  0  0
  -34.8889   59.8316   65.0701 C   0  0  0  0  0  0  0  0  0  0  0  0
  -34.6102   59.3092   63.6791 C   0  0  0  0  0  0  0  0  0  0  0  0
  -35.3447   58.0451   63.2792 N   0  0  0  0  0  0  0  0  0  0  0  0
  -35.8547   57.3153   64.4800 C   0  0  0  0  0  0  0  0  0  0  0  0
  -34.4168   57.1431   62.5303 C   0  0  0  0  0  0  0  0  0  0  0  0
  -36.5062   58.3959   62.4033 C   0  0  0  0  0  0  0  0  0  0  0  0
 34 33  1  0  0  0
 34 35  1  0  0  0
 34 36  1  0  0  0
 34 37  1  0  0  0
 22 23  1  0  0  0
 22 25  1  0  0  0
 22 21  1  0  0  0
 23 24  1  0  0  0
 27 26  1  0  0  0
 27 28  2  0  0  0
 27 31  1  0  0  0
 27 29  1  0  0  0
 25 26  1  0  0  0
 32 33  1  0  0  0
 32 31  1  0  0  0
 29 30  1  0  0  0
 20 21  1  0  0  0
 20  2  1  0  0  0
  1  2  2  0  0  0
  2  3  1  0  0  0
  3  4  1  0  0  0
  4  5  1  0  0  0
  5  6  1  0  0  0
  6  7  1  0  0  0
  7  8  1  0  0  0
  8  9  1  0  0  0
  9 10  1  0  0  0
 10 11  2  0  0  0
 11 12  1  0  0  0
 12 13  1  0  0  0
 13 14  1  0  0  0
 14 15  1  0  0  0
 15 16  1  0  0  0
 16 17  1  0  0  0
 17 18  1  0  0  0
 18 19  1  0  0  0
M  CHG 1  28  -1
M  END
> <minimizedAffinity>
-8.09261

> <CNNscore>
0.8685113788

> <CNNaffinity>
6.8285002708

> <CNN_VS>
5.9306302071

> <CNNaffinity_variance>
0.4065831602

$$$$
/media/chris/experiments/cd1a-new-docking/inputs/ligands/4x6c_ligand.pdb


 37 36  0  0  0  0  0  0  0  0999 V2000
  -41.9745   57.8169   65.8470 O   0  0  0  0  0  0  0  0  0  0  0  0
  -42.7049   58.6111   65.3383 C   0  0  0  0  0  0  0  0  0  0  0  0
  -44.1095   58.3225   64.9201 C   0  0  0  0  0  0  0  0  0  0  0  0
  -44.6226   56.9962   65.4484 C   0  0  0  0  0  0  0  0  0  0  0  0
  -46.0433   57.0770   65.9638 C   0  0  0  0  0  0  0  0  0  0  0  0
  -46.4355   58.4301   66.5090 C   0  0  0  0  0  0  0  0  0  0  0  0
  -47.6420   59.0330   65.8359 C   0  0  0  0  0  0  0  0  0  0  0  0
  -48.3684   58.0430   64.9655 C   0  0  0  0  0  0  0  0  0  0  0  0
  -49.8631   58.0501   65.0911 C   0  0  0  0  0  0  0  0  0  0  0  0
  -50.4243   59.3934   65.2955 C   0  0  0  0  0  0  0  0  0  0  0  0
  -50.9409   60.1998   64.3946 C   0  0  0  0  0  0  0  0  0  0  0  0
  -51.1126   59.9548   62.9403 C   0  0  0  0  0  0  0  0  0  0  0  0
  -49.8798   60.1824   62.0896 C   0  0  0  0  0  0  0  0  0  0  0  0
  -49.7601   59.1931   60.9632 C   0  0  0  0  0  0  0  0  0  0  0  0
  -49.7702   57.7478   61.3909 C   0  0  0  0  0  0  0  0  0  0  0  0
  -49.0616   56.8446   60.4057 C   0  0  0  0  0  0  0  0  0  0  0  0
  -49.2857   57.1862   58.9590 C   0  0  0  0  0  0  0  0  0  0  0  0
  -48.1285   56.8661   58.0999 C   0  0  0  0  0  0  0  0  0  0  0  0
  -47.0561   56.1692   58.8071 C   0  0  0  0  0  0  0  0  0  0  0  0
  -42.3587   59.8692   65.0661 O   0  0  0  0  0  0  0  0  0  0  0  0
  -41.6029   60.5855   66.0680 C   0  0  0  0  0  0  0  0  0  0  0  0
  -40.6908   61.5424   65.3355 C   0  0  0  0  0  0  0  0  0  0  0  0
  -40.5957   62.7642   66.0677 O   0  0  0  0  0  0  0  0  0  0  0  0
  -40.1841   62.5935   66.9294 H   0  0  0  0  0  0  0  0  0  0  0  0
  -39.2940   61.0279   65.0849 C   0  0  0  0  0  0  0  0  0  0  0  0
  -38.8373   61.5393   63.8165 O   0  0  0  0  0  0  0  0  0  0  0  0
  -39.1092   60.7067   62.4890 P   0  0  0  0  0  0  0  0  0  0  0  0
  -40.4076   61.1611   61.9515 O   0  0  0  0  0  0  0  0  0  0  0  0
  -37.9004   60.8315   61.6511 O   0  0  0  0  0  0  0  0  0  0  0  0
  -37.7823   61.7582   61.3898 H   0  0  0  0  0  0  0  0  0  0  0  0
  -39.2502   59.1767   62.8841 O   0  0  0  0  0  0  0  0  0  0  0  0
  -38.1694   58.2589   62.5957 C   0  0  0  0  0  0  0  0  0  0  0  0
  -37.3459   58.1783   63.8609 C   0  0  0  0  0  0  0  0  0  0  0  0
  -35.8496   58.3582   63.6982 N   0  0  0  0  0  0  0  0  0  0  0  0
  -35.4373   59.7591   64.0175 C   0  0  0  0  0  0  0  0  0  0  0  0
  -35.4600   58.0554   62.2868 C   0  0  0  0  0  0  0  0  0  0  0  0
  -35.1293   57.4253   64.6203 C   0  0  0  0  0  0  0  0  0  0  0  0
 34 33  1  0  0  0
 34 35  1  0  0  0
 34 36  1  0  0  0
 34 37  1  0  0  0
 22 23  1  0  0  0
 22 25  1  0  0  0
 22 21  1  0  0  0
 23 24  1  0  0  0
 27 26  1  0  0  0
 27 28  2  0  0  0
 27 31  1  0  0  0
 27 29  1  0  0  0
 25 26  1  0  0  0
 32 33  1  0  0  0
 32 31  1  0  0  0
 29 30  1  0  0  0
 20 21  1  0  0  0
 20  2  1  0  0  0
  1  2  2  0  0  0
  2  3  1  0  0  0
  3  4  1  0  0  0
  4  5  1  0  0  0
  5  6  1  0  0  0
  6  7  1  0  0  0
  7  8  1  0  0  0
  8  9  1  0  0  0
  9 10  1  0  0  0
 10 11  2  0  0  0
 11 12  1  0  0  0
 12 13  1  0  0  0
 13 14  1  0  0  0
 14 15  1  0  0  0
 15 16  1  0  0  0
 16 17  1  0  0  0
 17 18  1  0  0  0
 18 19  1  0  0  0
M  CHG 1  28  -1
M  END
> <minimizedAffinity>
-8.23735

> <CNNscore>
0.8279640079

> <CNNaffinity>
6.9732007980

> <CNN_VS>
5.7735590935

> <CNNaffinity_variance>
0.3547395468

$$$$
/media/chris/experiments/cd1a-new-docking/inputs/ligands/4x6c_ligand.pdb


 37 36  0  0  0  0  0  0  0  0999 V2000
  -42.2461   60.3355   67.2178 O   0  0  0  0  0  0  0  0  0  0  0  0
  -42.2055   59.8514   66.1283 C   0  0  0  0  0  0  0  0  0  0  0  0
  -43.4058   59.4455   65.3374 C   0  0  0  0  0  0  0  0  0  0  0  0
  -43.6816   57.9552   65.4049 C   0  0  0  0  0  0  0  0  0  0  0  0
  -45.0233   57.5770   64.8157 C   0  0  0  0  0  0  0  0  0  0  0  0
  -46.1456   57.4843   65.8225 C   0  0  0  0  0  0  0  0  0  0  0  0
  -47.2165   58.5296   65.6408 C   0  0  0  0  0  0  0  0  0  0  0  0
  -48.1992   58.1630   64.5614 C   0  0  0  0  0  0  0  0  0  0  0  0
  -49.6305   58.0661   64.9994 C   0  0  0  0  0  0  0  0  0  0  0  0
  -50.2612   59.3750   65.2238 C   0  0  0  0  0  0  0  0  0  0  0  0
  -50.8980   60.1258   64.3523 C   0  0  0  0  0  0  0  0  0  0  0  0
  -51.1656   59.8373   62.9207 C   0  0  0  0  0  0  0  0  0  0  0  0
  -50.0511   60.2021   61.9615 C   0  0  0  0  0  0  0  0  0  0  0  0
  -49.8704   59.1864   60.8670 C   0  0  0  0  0  0  0  0  0  0  0  0
  -49.7367   57.7631   61.3448 C   0  0  0  0  0  0  0  0  0  0  0  0
  -50.0752   56.7544   60.2695 C   0  0  0  0  0  0  0  0  0  0  0  0
  -48.9037   55.9742   59.7416 C   0  0  0  0  0  0  0  0  0  0  0  0
  -48.1977   56.6589   58.6407 C   0  0  0  0  0  0  0  0  0  0  0  0
  -46.7698   56.3517   58.5873 C   0  0  0  0  0  0  0  0  0  0  0  0
  -41.0740   59.5991   65.4704 O   0  0  0  0  0  0  0  0  0  0  0  0
  -40.6795   60.5307   64.4387 C   0  0  0  0  0  0  0  0  0  0  0  0
  -39.5812   61.3934   65.0165 C   0  0  0  0  0  0  0  0  0  0  0  0
  -40.1493   62.3555   65.9052 O   0  0  0  0  0  0  0  0  0  0  0  0
  -40.5656   61.8987   66.6529 H   0  0  0  0  0  0  0  0  0  0  0  0
  -38.5012   60.6419   65.7563 C   0  0  0  0  0  0  0  0  0  0  0  0
  -37.2832   60.7143   64.9880 O   0  0  0  0  0  0  0  0  0  0  0  0
  -36.3519   61.9977   65.1096 P   0  0  0  0  0  0  0  0  0  0  0  0
  -36.4140   62.7019   63.8129 O   0  0  0  0  0  0  0  0  0  0  0  0
  -36.7634   62.7098   66.3354 O   0  0  0  0  0  0  0  0  0  0  0  0
  -37.6753   63.0251   66.2354 H   0  0  0  0  0  0  0  0  0  0  0  0
  -34.8594   61.5075   65.3306 O   0  0  0  0  0  0  0  0  0  0  0  0
  -34.5369   60.1040   65.1892 C   0  0  0  0  0  0  0  0  0  0  0  0
  -33.9959   59.9427   63.7867 C   0  0  0  0  0  0  0  0  0  0  0  0
  -33.1656   58.7013   63.5283 N   0  0  0  0  0  0  0  0  0  0  0  0
  -33.9924   57.6181   62.9137 C   0  0  0  0  0  0  0  0  0  0  0  0
  -32.6025   58.1985   64.8190 C   0  0  0  0  0  0  0  0  0  0  0  0
  -32.0431   59.0340   62.5962 C   0  0  0  0  0  0  0  0  0  0  0  0
 34 33  1  0  0  0
 34 35  1  0  0  0
 34 36  1  0  0  0
 34 37  1  0  0  0
 22 23  1  0  0  0
 22 25  1  0  0  0
 22 21  1  0  0  0
 23 24  1  0  0  0
 27 26  1  0  0  0
 27 28  2  0  0  0
 27 31  1  0  0  0
 27 29  1  0  0  0
 25 26  1  0  0  0
 32 33  1  0  0  0
 32 31  1  0  0  0
 29 30  1  0  0  0
 20 21  1  0  0  0
 20  2  1  0  0  0
  1  2  2  0  0  0
  2  3  1  0  0  0
  3  4  1  0  0  0
  4  5  1  0  0  0
  5  6  1  0  0  0
  6  7  1  0  0  0
  7  8  1  0  0  0
  8  9  1  0  0  0
  9 10  1  0  0  0
 10 11  2  0  0  0
 11 12  1  0  0  0
 12 13  1  0  0  0
 13 14  1  0  0  0
 14 15  1  0  0  0
 15 16  1  0  0  0
 16 17  1  0  0  0
 17 18  1  0  0  0
 18 19  1  0  0  0
M  CHG 1  28  -1
M  END
> <minimizedAffinity>
-8.05626

> <CNNscore>
0.8157421350

> <CNNaffinity>
6.6667647362

> <CNN_VS>
5.4383606911

> <CNNaffinity_variance>
0.3931739926

$$$$
/media/chris/experiments/cd1a-new-docking/inputs/ligands/4x6c_ligand.pdb


 37 36  0  0  0  0  0  0  0  0999 V2000
  -41.0452   61.3485   65.9793 O   0  0  0  0  0  0  0  0  0  0  0  0
  -41.3107   61.0241   64.8624 C   0  0  0  0  0  0  0  0  0  0  0  0
  -42.4884   60.1880   64.4814 C   0  0  0  0  0  0  0  0  0  0  0  0
  -43.0532   59.3971   65.6462 C   0  0  0  0  0  0  0  0  0  0  0  0
  -44.5357   59.1254   65.5102 C   0  0  0  0  0  0  0  0  0  0  0  0
  -44.8883   57.6737   65.2862 C   0  0  0  0  0  0  0  0  0  0  0  0
  -46.3334   57.3467   65.5636 C   0  0  0  0  0  0  0  0  0  0  0  0
  -47.2209   58.5600   65.4897 C   0  0  0  0  0  0  0  0  0  0  0  0
  -48.1006   58.6417   64.2775 C   0  0  0  0  0  0  0  0  0  0  0  0
  -48.9515   59.8403   64.2546 C   0  0  0  0  0  0  0  0  0  0  0  0
  -49.7307   60.2604   63.2824 C   0  0  0  0  0  0  0  0  0  0  0  0
  -49.9716   59.6219   61.9638 C   0  0  0  0  0  0  0  0  0  0  0  0
  -50.8316   58.3749   61.9893 C   0  0  0  0  0  0  0  0  0  0  0  0
  -50.6507   57.5189   60.7660 C   0  0  0  0  0  0  0  0  0  0  0  0
  -49.6178   58.0240   59.7914 C   0  0  0  0  0  0  0  0  0  0  0  0
  -49.1729   56.9602   58.8120 C   0  0  0  0  0  0  0  0  0  0  0  0
  -47.9201   56.2258   59.2006 C   0  0  0  0  0  0  0  0  0  0  0  0
  -47.1112   55.8018   58.0407 C   0  0  0  0  0  0  0  0  0  0  0  0
  -46.5030   56.9175   57.3186 C   0  0  0  0  0  0  0  0  0  0  0  0
  -40.5810   61.3607   63.7990 O   0  0  0  0  0  0  0  0  0  0  0  0
  -41.2737   61.5399   62.5435 C   0  0  0  0  0  0  0  0  0  0  0  0
  -40.4704   60.8174   61.4867 C   0  0  0  0  0  0  0  0  0  0  0  0
  -40.8313   61.3085   60.1957 O   0  0  0  0  0  0  0  0  0  0  0  0
  -40.5960   62.2472   60.1294 H   0  0  0  0  0  0  0  0  0  0  0  0
  -38.9724   60.9283   61.6361 C   0  0  0  0  0  0  0  0  0  0  0  0
  -38.4379   59.6133   61.8893 O   0  0  0  0  0  0  0  0  0  0  0  0
  -37.7001   59.3162   63.2665 P   0  0  0  0  0  0  0  0  0  0  0  0
  -37.0269   60.5655   63.6753 O   0  0  0  0  0  0  0  0  0  0  0  0
  -38.7018   58.7112   64.1662 O   0  0  0  0  0  0  0  0  0  0  0  0
  -39.4031   59.3560   64.3494 H   0  0  0  0  0  0  0  0  0  0  0  0
  -36.5833   58.2205   63.0038 O   0  0  0  0  0  0  0  0  0  0  0  0
  -35.5501   57.9980   63.9920 C   0  0  0  0  0  0  0  0  0  0  0  0
  -34.2659   57.8174   63.2151 C   0  0  0  0  0  0  0  0  0  0  0  0
  -33.1181   58.7305   63.5977 N   0  0  0  0  0  0  0  0  0  0  0  0
  -32.1553   58.8896   62.4653 C   0  0  0  0  0  0  0  0  0  0  0  0
  -32.3882   58.1531   64.7679 C   0  0  0  0  0  0  0  0  0  0  0  0
  -33.6517   60.0794   63.9653 C   0  0  0  0  0  0  0  0  0  0  0  0
 34 33  1  0  0  0
 34 35  1  0  0  0
 34 36  1  0  0  0
 34 37  1  0  0  0
 22 23  1  0  0  0
 22 25  1  0  0  0
 22 21  1  0  0  0
 23 24  1  0  0  0
 27 26  1  0  0  0
 27 28  2  0  0  0
 27 31  1  0  0  0
 27 29  1  0  0  0
 25 26  1  0  0  0
 32 33  1  0  0  0
 32 31  1  0  0  0
 29 30  1  0  0  0
 20 21  1  0  0  0
 20  2  1  0  0  0
  1  2  2  0  0  0
  2  3  1  0  0  0
  3  4  1  0  0  0
  4  5  1  0  0  0
  5  6  1  0  0  0
  6  7  1  0  0  0
  7  8  1  0  0  0
  8  9  1  0  0  0
  9 10  1  0  0  0
 10 11  2  0  0  0
 11 12  1  0  0  0
 12 13  1  0  0  0
 13 14  1  0  0  0
 14 15  1  0  0  0
 15 16  1  0  0  0
 16 17  1  0  0  0
 17 18  1  0  0  0
 18 19  1  0  0  0
M  CHG 1  28  -1
M  END
> <minimizedAffinity>
-7.73825

> <CNNscore>
0.7434138656

> <CNNaffinity>
6.7307457924

> <CNN_VS>
5.0037298203

> <CNNaffinity_variance>
1.1300022602

$$$$
/media/chris/experiments/cd1a-new-docking/inputs/ligands/4x6c_ligand.pdb


 37 36  0  0  0  0  0  0  0  0999 V2000
  -41.8032   58.1500   65.6454 O   0  0  0  0  0  0  0  0  0  0  0  0
  -42.1726   59.2838   65.6116 C   0  0  0  0  0  0  0  0  0  0  0  0
  -43.5923   59.7166   65.7798 C   0  0  0  0  0  0  0  0  0  0  0  0
  -44.5748   58.8131   65.0589 C   0  0  0  0  0  0  0  0  0  0  0  0
  -45.9192   58.7348   65.7494 C   0  0  0  0  0  0  0  0  0  0  0  0
  -46.4236   57.3298   65.9803 C   0  0  0  0  0  0  0  0  0  0  0  0
  -47.7492   57.0415   65.3230 C   0  0  0  0  0  0  0  0  0  0  0  0
  -48.4281   58.2902   64.8280 C   0  0  0  0  0  0  0  0  0  0  0  0
  -49.8615   58.4505   65.2401 C   0  0  0  0  0  0  0  0  0  0  0  0
  -50.4314   59.7547   64.8719 C   0  0  0  0  0  0  0  0  0  0  0  0
  -50.9749   60.1056   63.7272 C   0  0  0  0  0  0  0  0  0  0  0  0
  -51.1751   59.2698   62.5166 C   0  0  0  0  0  0  0  0  0  0  0  0
  -50.0133   59.2388   61.5448 C   0  0  0  0  0  0  0  0  0  0  0  0
  -49.6706   57.8458   61.0927 C   0  0  0  0  0  0  0  0  0  0  0  0
  -50.2033   57.4768   59.7318 C   0  0  0  0  0  0  0  0  0  0  0  0
  -49.1046   57.1267   58.7525 C   0  0  0  0  0  0  0  0  0  0  0  0
  -47.9517   56.3624   59.3409 C   0  0  0  0  0  0  0  0  0  0  0  0
  -47.2395   55.5307   58.3508 C   0  0  0  0  0  0  0  0  0  0  0  0
  -47.7451   55.6896   56.9887 C   0  0  0  0  0  0  0  0  0  0  0  0
  -41.3618   60.3224   65.4095 O   0  0  0  0  0  0  0  0  0  0  0  0
  -40.1344   60.0804   64.6863 C   0  0  0  0  0  0  0  0  0  0  0  0
  -39.2510   61.2888   64.8951 C   0  0  0  0  0  0  0  0  0  0  0  0
  -39.8915   62.1977   65.7905 O   0  0  0  0  0  0  0  0  0  0  0  0
  -39.9958   61.7771   66.6584 H   0  0  0  0  0  0  0  0  0  0  0  0
  -37.8719   60.9871   65.4295 C   0  0  0  0  0  0  0  0  0  0  0  0
  -37.3050   62.2061   65.9509 O   0  0  0  0  0  0  0  0  0  0  0  0
  -35.8439   62.6478   65.5045 P   0  0  0  0  0  0  0  0  0  0  0  0
  -34.9254   61.5574   65.8898 O   0  0  0  0  0  0  0  0  0  0  0  0
  -35.9326   63.0461   64.0858 O   0  0  0  0  0  0  0  0  0  0  0  0
  -36.1767   62.2762   63.5485 H   0  0  0  0  0  0  0  0  0  0  0  0
  -35.4435   63.9416   66.3307 O   0  0  0  0  0  0  0  0  0  0  0  0
  -34.0465   64.2629   66.5277 C   0  0  0  0  0  0  0  0  0  0  0  0
  -33.6456   65.1115   65.3425 C   0  0  0  0  0  0  0  0  0  0  0  0
  -32.2538   64.8754   64.7906 N   0  0  0  0  0  0  0  0  0  0  0  0
  -31.2504   64.7550   65.8921 C   0  0  0  0  0  0  0  0  0  0  0  0
  -31.8634   66.0203   63.9118 C   0  0  0  0  0  0  0  0  0  0  0  0
  -32.2397   63.6112   63.9900 C   0  0  0  0  0  0  0  0  0  0  0  0
 34 33  1  0  0  0
 34 35  1  0  0  0
 34 36  1  0  0  0
 34 37  1  0  0  0
 22 23  1  0  0  0
 22 25  1  0  0  0
 22 21  1  0  0  0
 23 24  1  0  0  0
 27 26  1  0  0  0
 27 28  2  0  0  0
 27 31  1  0  0  0
 27 29  1  0  0  0
 25 26  1  0  0  0
 32 33  1  0  0  0
 32 31  1  0  0  0
 29 30  1  0  0  0
 20 21  1  0  0  0
 20  2  1  0  0  0
  1  2  2  0  0  0
  2  3  1  0  0  0
  3  4  1  0  0  0
  4  5  1  0  0  0
  5  6  1  0  0  0
  6  7  1  0  0  0
  7  8  1  0  0  0
  8  9  1  0  0  0
  9 10  1  0  0  0
 10 11  2  0  0  0
 11 12  1  0  0  0
 12 13  1  0  0  0
 13 14  1  0  0  0
 14 15  1  0  0  0
 15 16  1  0  0  0
 16 17  1  0  0  0
 17 18  1  0  0  0
 18 19  1  0  0  0
M  CHG 1  28  -1
M  END
> <minimizedAffinity>
-8.17332

> <CNNscore>
0.7096102238

> <CNNaffinity>
6.2443737984

> <CNN_VS>
4.4310712814

> <CNNaffinity_variance>
0.4570302367

$$$$
/media/chris/experiments/cd1a-new-docking/inputs/ligands/4x6c_ligand.pdb


 37 36  0  0  0  0  0  0  0  0999 V2000
  -42.1272   57.9215   66.0832 O   0  0  0  0  0  0  0  0  0  0  0  0
  -42.8639   58.6736   65.5222 C   0  0  0  0  0  0  0  0  0  0  0  0
  -44.1778   58.2852   64.9273 C   0  0  0  0  0  0  0  0  0  0  0  0
  -44.8408   57.1340   65.6598 C   0  0  0  0  0  0  0  0  0  0  0  0
  -46.1694   57.5150   66.2763 C   0  0  0  0  0  0  0  0  0  0  0  0
  -46.4323   59.0016   66.3279 C   0  0  0  0  0  0  0  0  0  0  0  0
  -47.5938   59.4460   65.4761 C   0  0  0  0  0  0  0  0  0  0  0  0
  -48.2265   58.3040   64.7272 C   0  0  0  0  0  0  0  0  0  0  0  0
  -49.6908   58.1001   64.9807 C   0  0  0  0  0  0  0  0  0  0  0  0
  -50.4162   59.3512   65.2452 C   0  0  0  0  0  0  0  0  0  0  0  0
  -51.0091   60.1411   64.3773 C   0  0  0  0  0  0  0  0  0  0  0  0
  -51.1200   59.9638   62.9074 C   0  0  0  0  0  0  0  0  0  0  0  0
  -49.9281   60.4369   62.1007 C   0  0  0  0  0  0  0  0  0  0  0  0
  -49.6897   59.6028   60.8721 C   0  0  0  0  0  0  0  0  0  0  0  0
  -49.5922   58.1204   61.1268 C   0  0  0  0  0  0  0  0  0  0  0  0
  -50.3153   57.3017   60.0802 C   0  0  0  0  0  0  0  0  0  0  0  0
  -49.5706   57.1284   58.7859 C   0  0  0  0  0  0  0  0  0  0  0  0
  -48.1211   56.9197   58.9724 C   0  0  0  0  0  0  0  0  0  0  0  0
  -47.7478   55.5114   59.0878 C   0  0  0  0  0  0  0  0  0  0  0  0
  -42.6062   59.9692   65.3435 O   0  0  0  0  0  0  0  0  0  0  0  0
  -41.5729   60.5633   66.1606 C   0  0  0  0  0  0  0  0  0  0  0  0
  -40.4757   61.0186   65.2263 C   0  0  0  0  0  0  0  0  0  0  0  0
  -39.7359   62.0745   65.8393 O   0  0  0  0  0  0  0  0  0  0  0  0
  -39.2990   61.7413   66.6388 H   0  0  0  0  0  0  0  0  0  0  0  0
  -39.5064   59.9403   64.8061 C   0  0  0  0  0  0  0  0  0  0  0  0
  -39.1856   60.1292   63.4131 O   0  0  0  0  0  0  0  0  0  0  0  0
  -37.7049   60.5313   62.9946 P   0  0  0  0  0  0  0  0  0  0  0  0
  -36.8711   59.3207   63.1365 O   0  0  0  0  0  0  0  0  0  0  0  0
  -37.7973   61.1909   61.6772 O   0  0  0  0  0  0  0  0  0  0  0  0
  -38.1190   60.5549   61.0192 H   0  0  0  0  0  0  0  0  0  0  0  0
  -37.1759   61.6149   64.0256 O   0  0  0  0  0  0  0  0  0  0  0  0
  -36.2348   62.6228   63.5871 C   0  0  0  0  0  0  0  0  0  0  0  0
  -35.6722   63.2401   64.8472 C   0  0  0  0  0  0  0  0  0  0  0  0
  -34.3278   62.7131   65.3081 N   0  0  0  0  0  0  0  0  0  0  0  0
  -34.4801   61.4264   66.0537 C   0  0  0  0  0  0  0  0  0  0  0  0
  -33.6806   63.7144   66.2103 C   0  0  0  0  0  0  0  0  0  0  0  0
  -33.4481   62.4770   64.1208 C   0  0  0  0  0  0  0  0  0  0  0  0
 34 33  1  0  0  0
 34 35  1  0  0  0
 34 36  1  0  0  0
 34 37  1  0  0  0
 22 23  1  0  0  0
 22 25  1  0  0  0
 22 21  1  0  0  0
 23 24  1  0  0  0
 27 26  1  0  0  0
 27 28  2  0  0  0
 27 31  1  0  0  0
 27 29  1  0  0  0
 25 26  1  0  0  0
 32 33  1  0  0  0
 32 31  1  0  0  0
 29 30  1  0  0  0
 20 21  1  0  0  0
 20  2  1  0  0  0
  1  2  2  0  0  0
  2  3  1  0  0  0
  3  4  1  0  0  0
  4  5  1  0  0  0
  5  6  1  0  0  0
  6  7  1  0  0  0
  7  8  1  0  0  0
  8  9  1  0  0  0
  9 10  1  0  0  0
 10 11  2  0  0  0
 11 12  1  0  0  0
 12 13  1  0  0  0
 13 14  1  0  0  0
 14 15  1  0  0  0
 15 16  1  0  0  0
 16 17  1  0  0  0
 17 18  1  0  0  0
 18 19  1  0  0  0
M  CHG 1  28  -1
M  END
> <minimizedAffinity>
-8.04507

> <CNNscore>
0.6440947056

> <CNNaffinity>
6.4408769608

> <CNN_VS>
4.1485347748

> <CNNaffinity_variance>
0.2929794192

$$$$
/media/chris/experiments/cd1a-new-docking/inputs/ligands/4x6c_ligand.pdb


 37 36  0  0  0  0  0  0  0  0999 V2000
  -44.5613   57.5928   64.0000 O   0  0  0  0  0  0  0  0  0  0  0  0
  -44.5806   57.9055   65.1511 C   0  0  0  0  0  0  0  0  0  0  0  0
  -45.6972   57.5955   66.0935 C   0  0  0  0  0  0  0  0  0  0  0  0
  -46.2813   58.8345   66.7455 C   0  0  0  0  0  0  0  0  0  0  0  0
  -46.9498   59.7624   65.7543 C   0  0  0  0  0  0  0  0  0  0  0  0
  -48.3387   60.2055   66.1498 C   0  0  0  0  0  0  0  0  0  0  0  0
  -49.4398   59.3638   65.5570 C   0  0  0  0  0  0  0  0  0  0  0  0
  -50.6759   60.1669   65.2529 C   0  0  0  0  0  0  0  0  0  0  0  0
  -51.1422   60.1165   63.8281 C   0  0  0  0  0  0  0  0  0  0  0  0
  -50.0457   60.2014   62.8526 C   0  0  0  0  0  0  0  0  0  0  0  0
  -49.5007   59.2247   62.1614 C   0  0  0  0  0  0  0  0  0  0  0  0
  -49.8658   57.7856   62.1692 C   0  0  0  0  0  0  0  0  0  0  0  0
  -49.4434   56.9979   60.9460 C   0  0  0  0  0  0  0  0  0  0  0  0
  -49.3732   57.8448   59.7050 C   0  0  0  0  0  0  0  0  0  0  0  0
  -49.8004   57.1449   58.4402 C   0  0  0  0  0  0  0  0  0  0  0  0
  -48.6264   56.7149   57.5885 C   0  0  0  0  0  0  0  0  0  0  0  0
  -47.8160   55.5816   58.1529 C   0  0  0  0  0  0  0  0  0  0  0  0
  -46.3600   55.8116   58.0728 C   0  0  0  0  0  0  0  0  0  0  0  0
  -46.0084   57.1146   57.5118 C   0  0  0  0  0  0  0  0  0  0  0  0
  -43.6040   58.5855   65.7515 O   0  0  0  0  0  0  0  0  0  0  0  0
  -43.1332   59.7891   65.1050 C   0  0  0  0  0  0  0  0  0  0  0  0
  -41.6443   59.8715   65.3513 C   0  0  0  0  0  0  0  0  0  0  0  0
  -40.9484   59.2375   64.2781 O   0  0  0  0  0  0  0  0  0  0  0  0
  -41.1200   59.7179   63.4530 H   0  0  0  0  0  0  0  0  0  0  0  0
  -41.0998   61.2702   65.5110 C   0  0  0  0  0  0  0  0  0  0  0  0
  -39.7794   61.1860   66.0840 O   0  0  0  0  0  0  0  0  0  0  0  0
  -38.5040   61.3260   65.1443 P   0  0  0  0  0  0  0  0  0  0  0  0
  -38.9985   61.4381   63.7572 O   0  0  0  0  0  0  0  0  0  0  0  0
  -37.6782   62.4141   65.7038 O   0  0  0  0  0  0  0  0  0  0  0  0
  -38.1668   63.2505   65.6513 H   0  0  0  0  0  0  0  0  0  0  0  0
  -37.6569   59.9892   65.2566 O   0  0  0  0  0  0  0  0  0  0  0  0
  -37.1762   59.3416   64.0553 C   0  0  0  0  0  0  0  0  0  0  0  0
  -35.6676   59.4149   64.1207 C   0  0  0  0  0  0  0  0  0  0  0  0
  -34.9234   58.1165   63.8801 N   0  0  0  0  0  0  0  0  0  0  0  0
  -35.4742   57.0146   64.7269 C   0  0  0  0  0  0  0  0  0  0  0  0
  -33.4777   58.2992   64.2149 C   0  0  0  0  0  0  0  0  0  0  0  0
  -35.0514   57.7244   62.4416 C   0  0  0  0  0  0  0  0  0  0  0  0
 34 33  1  0  0  0
 34 35  1  0  0  0
 34 36  1  0  0  0
 34 37  1  0  0  0
 22 23  1  0  0  0
 22 25  1  0  0  0
 22 21  1  0  0  0
 23 24  1  0  0  0
 27 26  1  0  0  0
 27 28  2  0  0  0
 27 31  1  0  0  0
 27 29  1  0  0  0
 25 26  1  0  0  0
 32 33  1  0  0  0
 32 31  1  0  0  0
 29 30  1  0  0  0
 20 21  1  0  0  0
 20  2  1  0  0  0
  1  2  2  0  0  0
  2  3  1  0  0  0
  3  4  1  0  0  0
  4  5  1  0  0  0
  5  6  1  0  0  0
  6  7  1  0  0  0
  7  8  1  0  0  0
  8  9  1  0  0  0
  9 10  1  0  0  0
 10 11  2  0  0  0
 11 12  1  0  0  0
 12 13  1  0  0  0
 13 14  1  0  0  0
 14 15  1  0  0  0
 15 16  1  0  0  0
 16 17  1  0  0  0
 17 18  1  0  0  0
 18 19  1  0  0  0
M  CHG 1  28  -1
M  END
> <minimizedAffinity>
-7.32059

> <CNNscore>
0.6440870166

> <CNNaffinity>
6.5130538940

> <CNN_VS>
4.1949734688

> <CNNaffinity_variance>
0.3154515326

$$$$
/media/chris/experiments/cd1a-new-docking/inputs/ligands/4x6c_ligand.pdb


 37 36  0  0  0  0  0  0  0  0999 V2000
  -39.5775   60.7979   66.1235 O   0  0  0  0  0  0  0  0  0  0  0  0
  -39.9781   60.1761   65.1875 C   0  0  0  0  0  0  0  0  0  0  0  0
  -40.8017   58.9339   65.2867 C   0  0  0  0  0  0  0  0  0  0  0  0
  -41.8200   58.9884   66.4099 C   0  0  0  0  0  0  0  0  0  0  0  0
  -42.9668   59.9324   66.1202 C   0  0  0  0  0  0  0  0  0  0  0  0
  -43.8252   59.5323   64.9434 C   0  0  0  0  0  0  0  0  0  0  0  0
  -44.5179   58.2047   65.1166 C   0  0  0  0  0  0  0  0  0  0  0  0
  -45.9857   58.3573   65.4126 C   0  0  0  0  0  0  0  0  0  0  0  0
  -46.5273   59.7502   65.2834 C   0  0  0  0  0  0  0  0  0  0  0  0
  -47.7944   59.9517   66.0012 C   0  0  0  0  0  0  0  0  0  0  0  0
  -49.0156   59.7456   65.5597 C   0  0  0  0  0  0  0  0  0  0  0  0
  -49.4321   59.2342   64.2295 C   0  0  0  0  0  0  0  0  0  0  0  0
  -50.5366   60.0144   63.5464 C   0  0  0  0  0  0  0  0  0  0  0  0
  -51.1770   59.2504   62.4202 C   0  0  0  0  0  0  0  0  0  0  0  0
  -50.5042   57.9445   62.0828 C   0  0  0  0  0  0  0  0  0  0  0  0
  -51.0262   57.3357   60.8000 C   0  0  0  0  0  0  0  0  0  0  0  0
  -50.2545   57.7049   59.5639 C   0  0  0  0  0  0  0  0  0  0  0  0
  -48.8989   57.1214   59.5287 C   0  0  0  0  0  0  0  0  0  0  0  0
  -48.4589   56.7569   58.1835 C   0  0  0  0  0  0  0  0  0  0  0  0
  -39.7349   60.5057   63.9190 O   0  0  0  0  0  0  0  0  0  0  0  0
  -38.8322   59.6609   63.1710 C   0  0  0  0  0  0  0  0  0  0  0  0
  -37.8634   60.5728   62.4538 C   0  0  0  0  0  0  0  0  0  0  0  0
  -38.2950   60.7605   61.1060 O   0  0  0  0  0  0  0  0  0  0  0  0
  -39.1544   61.2103   61.1015 H   0  0  0  0  0  0  0  0  0  0  0  0
  -37.6761   61.9303   63.0868 C   0  0  0  0  0  0  0  0  0  0  0  0
  -36.3489   61.9964   63.6465 O   0  0  0  0  0  0  0  0  0  0  0  0
  -36.1480   62.5230   65.1336 P   0  0  0  0  0  0  0  0  0  0  0  0
  -35.4490   63.8207   65.0426 O   0  0  0  0  0  0  0  0  0  0  0  0
  -37.4684   62.4616   65.7908 O   0  0  0  0  0  0  0  0  0  0  0  0
  -38.0780   63.0736   65.3493 H   0  0  0  0  0  0  0  0  0  0  0  0
  -35.1975   61.5062   65.8950 O   0  0  0  0  0  0  0  0  0  0  0  0
  -34.5009   60.4801   65.1496 C   0  0  0  0  0  0  0  0  0  0  0  0
  -35.4775   59.3346   65.0098 C   0  0  0  0  0  0  0  0  0  0  0  0
  -34.9506   58.0846   64.3335 N   0  0  0  0  0  0  0  0  0  0  0  0
  -35.2105   58.1178   62.8618 C   0  0  0  0  0  0  0  0  0  0  0  0
  -35.6251   56.8815   64.9107 C   0  0  0  0  0  0  0  0  0  0  0  0
  -33.4748   57.9781   64.5566 C   0  0  0  0  0  0  0  0  0  0  0  0
 34 33  1  0  0  0
 34 35  1  0  0  0
 34 36  1  0  0  0
 34 37  1  0  0  0
 22 23  1  0  0  0
 22 25  1  0  0  0
 22 21  1  0  0  0
 23 24  1  0  0  0
 27 26  1  0  0  0
 27 28  2  0  0  0
 27 31  1  0  0  0
 27 29  1  0  0  0
 25 26  1  0  0  0
 32 33  1  0  0  0
 32 31  1  0  0  0
 29 30  1  0  0  0
 20 21  1  0  0  0
 20  2  1  0  0  0
  1  2  2  0  0  0
  2  3  1  0  0  0
  3  4  1  0  0  0
  4  5  1  0  0  0
  5  6  1  0  0  0
  6  7  1  0  0  0
  7  8  1  0  0  0
  8  9  1  0  0  0
  9 10  1  0  0  0
 10 11  2  0  0  0
 11 12  1  0  0  0
 12 13  1  0  0  0
 13 14  1  0  0  0
 14 15  1  0  0  0
 15 16  1  0  0  0
 16 17  1  0  0  0
 17 18  1  0  0  0
 18 19  1  0  0  0
M  CHG 1  28  -1
M  END
> <minimizedAffinity>
-7.88702

> <CNNscore>
0.6248666048

> <CNNaffinity>
6.4917831421

> <CNN_VS>
4.0564985275

> <CNNaffinity_variance>
0.3584868610

$$$$
/media/chris/experiments/cd1a-new-docking/inputs/ligands/4x6c_ligand.pdb


 37 36  0  0  0  0  0  0  0  0999 V2000
  -39.2455   61.6743   65.7600 O   0  0  0  0  0  0  0  0  0  0  0  0
  -40.0076   60.8553   65.3458 C   0  0  0  0  0  0  0  0  0  0  0  0
  -41.4759   60.8505   65.6196 C   0  0  0  0  0  0  0  0  0  0  0  0
  -42.1828   59.6444   65.0306 C   0  0  0  0  0  0  0  0  0  0  0  0
  -43.6274   59.5360   65.4688 C   0  0  0  0  0  0  0  0  0  0  0  0
  -44.4163   58.4578   64.7639 C   0  0  0  0  0  0  0  0  0  0  0  0
  -45.8899   58.4737   65.0810 C   0  0  0  0  0  0  0  0  0  0  0  0
  -46.3974   59.8582   65.3821 C   0  0  0  0  0  0  0  0  0  0  0  0
  -47.8091   60.1334   64.9562 C   0  0  0  0  0  0  0  0  0  0  0  0
  -48.7145   58.9949   65.1690 C   0  0  0  0  0  0  0  0  0  0  0  0
  -49.9856   58.9012   64.8460 C   0  0  0  0  0  0  0  0  0  0  0  0
  -50.8315   59.9117   64.1621 C   0  0  0  0  0  0  0  0  0  0  0  0
  -50.7728   59.8960   62.6483 C   0  0  0  0  0  0  0  0  0  0  0  0
  -50.8146   58.5044   62.0793 C   0  0  0  0  0  0  0  0  0  0  0  0
  -49.5236   58.0405   61.4549 C   0  0  0  0  0  0  0  0  0  0  0  0
  -49.7304   56.9306   60.4479 C   0  0  0  0  0  0  0  0  0  0  0  0
  -49.5771   57.3430   59.0105 C   0  0  0  0  0  0  0  0  0  0  0  0
  -48.5918   56.5273   58.2734 C   0  0  0  0  0  0  0  0  0  0  0  0
  -47.3498   56.3096   59.0125 C   0  0  0  0  0  0  0  0  0  0  0  0
  -39.6453   59.8230   64.5842 O   0  0  0  0  0  0  0  0  0  0  0  0
  -38.2737   59.3768   64.6728 C   0  0  0  0  0  0  0  0  0  0  0  0
  -37.7530   59.2607   63.2587 C   0  0  0  0  0  0  0  0  0  0  0  0
  -37.6303   60.5635   62.6880 O   0  0  0  0  0  0  0  0  0  0  0  0
  -36.9717   61.0735   63.1850 H   0  0  0  0  0  0  0  0  0  0  0  0
  -36.4256   58.5549   63.1228 C   0  0  0  0  0  0  0  0  0  0  0  0
  -35.7603   58.5785   64.4017 O   0  0  0  0  0  0  0  0  0  0  0  0
  -34.1845   58.7836   64.4647 P   0  0  0  0  0  0  0  0  0  0  0  0
  -33.6780   57.9162   65.5474 O   0  0  0  0  0  0  0  0  0  0  0  0
  -33.6736   58.5942   63.0928 O   0  0  0  0  0  0  0  0  0  0  0  0
  -33.8332   57.6795   62.8118 H   0  0  0  0  0  0  0  0  0  0  0  0
  -33.8969   60.2907   64.8683 O   0  0  0  0  0  0  0  0  0  0  0  0
  -33.7312   61.2907   63.8358 C   0  0  0  0  0  0  0  0  0  0  0  0
  -33.5881   62.6113   64.5575 C   0  0  0  0  0  0  0  0  0  0  0  0
  -34.7712   63.5546   64.4680 N   0  0  0  0  0  0  0  0  0  0  0  0
  -34.6404   64.6776   65.4460 C   0  0  0  0  0  0  0  0  0  0  0  0
  -36.0311   62.8064   64.7653 C   0  0  0  0  0  0  0  0  0  0  0  0
  -34.8516   64.1285   63.0883 C   0  0  0  0  0  0  0  0  0  0  0  0
 34 33  1  0  0  0
 34 35  1  0  0  0
 34 36  1  0  0  0
 34 37  1  0  0  0
 22 23  1  0  0  0
 22 25  1  0  0  0
 22 21  1  0  0  0
 23 24  1  0  0  0
 27 26  1  0  0  0
 27 28  2  0  0  0
 27 31  1  0  0  0
 27 29  1  0  0  0
 25 26  1  0  0  0
 32 33  1  0  0  0
 32 31  1  0  0  0
 29 30  1  0  0  0
 20 21  1  0  0  0
 20  2  1  0  0  0
  1  2  2  0  0  0
  2  3  1  0  0  0
  3  4  1  0  0  0
  4  5  1  0  0  0
  5  6  1  0  0  0
  6  7  1  0  0  0
  7  8  1  0  0  0
  8  9  1  0  0  0
  9 10  1  0  0  0
 10 11  2  0  0  0
 11 12  1  0  0  0
 12 13  1  0  0  0
 13 14  1  0  0  0
 14 15  1  0  0  0
 15 16  1  0  0  0
 16 17  1  0  0  0
 17 18  1  0  0  0
 18 19  1  0  0  0
M  CHG 1  28  -1
M  END
> <minimizedAffinity>
-7.31986

> <CNNscore>
0.6248243451

> <CNNaffinity>
6.4385056496

> <CNN_VS>
4.0229349136

> <CNNaffinity_variance>
0.7457906008

$$$$
