/media/chris/experiments/cd1a-new-docking/inputs/ligands/4x6c_ligand.pdb


 37 36  0  0  0  0  0  0  0  0999 V2000
  -42.4766   57.2206   66.2816 O   0  0  0  0  0  0  0  0  0  0  0  0
  -43.3722   57.6492   65.6204 C   0  0  0  0  0  0  0  0  0  0  0  0
  -44.7271   57.0276   65.5260 C   0  0  0  0  0  0  0  0  0  0  0  0
  -45.5645   57.6043   64.4001 C   0  0  0  0  0  0  0  0  0  0  0  0
  -46.9219   58.0874   64.8633 C   0  0  0  0  0  0  0  0  0  0  0  0
  -46.8764   59.2280   65.8527 C   0  0  0  0  0  0  0  0  0  0  0  0
  -48.2125   59.8852   66.0883 C   0  0  0  0  0  0  0  0  0  0  0  0
  -49.2286   59.5109   65.0429 C   0  0  0  0  0  0  0  0  0  0  0  0
  -49.3206   60.4433   63.8714 C   0  0  0  0  0  0  0  0  0  0  0  0
  -50.6328   60.4192   63.2091 C   0  0  0  0  0  0  0  0  0  0  0  0
  -51.1770   59.4351   62.5279 C   0  0  0  0  0  0  0  0  0  0  0  0
  -50.6178   58.0843   62.2695 C   0  0  0  0  0  0  0  0  0  0  0  0
  -51.0558   57.4329   60.9736 C   0  0  0  0  0  0  0  0  0  0  0  0
  -49.9561   57.3800   59.9489 C   0  0  0  0  0  0  0  0  0  0  0  0
  -48.9539   56.2736   60.1577 C   0  0  0  0  0  0  0  0  0  0  0  0
  -47.6924   56.4709   59.3462 C   0  0  0  0  0  0  0  0  0  0  0  0
  -47.3618   55.3456   58.4060 C   0  0  0  0  0  0  0  0  0  0  0  0
  -47.0536   55.8036   57.0368 C   0  0  0  0  0  0  0  0  0  0  0  0
  -46.8167   57.2430   56.9460 C   0  0  0  0  0  0  0  0  0  0  0  0
  -43.2790   58.7439   64.8658 O   0  0  0  0  0  0  0  0  0  0  0  0
  -42.7409   59.9354   65.4812 C   0  0  0  0  0  0  0  0  0  0  0  0
  -41.3278   60.0988   64.9706 C   0  0  0  0  0  0  0  0  0  0  0  0
  -41.3144   61.0447   63.9014 O   0  0  0  0  0  0  0  0  0  0  0  0
  -41.5912   61.9128   64.2340 H   0  0  0  0  0  0  0  0  0  0  0  0
  -40.3210   60.5374   66.0062 C   0  0  0  0  0  0  0  0  0  0  0  0
  -39.5553   61.6335   65.4665 O   0  0  0  0  0  0  0  0  0  0  0  0
  -38.0133   61.4279   65.1358 P   0  0  0  0  0  0  0  0  0  0  0  0
  -37.7495   62.1171   63.8564 O   0  0  0  0  0  0  0  0  0  0  0  0
  -37.2605   61.8322   66.3393 O   0  0  0  0  0  0  0  0  0  0  0  0
  -37.3955   62.7789   66.5023 H   0  0  0  0  0  0  0  0  0  0  0  0
  -37.7555   59.8774   64.9201 O   0  0  0  0  0  0  0  0  0  0  0  0
  -37.1794   59.4121   63.6770 C   0  0  0  0  0  0  0  0  0  0  0  0
  -35.6875   59.3446   63.9118 C   0  0  0  0  0  0  0  0  0  0  0  0
  -35.0311   58.0010   63.6634 N   0  0  0  0  0  0  0  0  0  0  0  0
  -33.6139   57.9973   64.1395 C   0  0  0  0  0  0  0  0  0  0  0  0
  -35.0438   57.7012   62.1987 C   0  0  0  0  0  0  0  0  0  0  0  0
  -35.7836   56.9328   64.3927 C   0  0  0  0  0  0  0  0  0  0  0  0
 34 33  1  0  0  0
 34 35  1  0  0  0
 34 36  1  0  0  0
 34 37  1  0  0  0
 22 23  1  0  0  0
 22 25  1  0  0  0
 22 21  1  0  0  0
 23 24  1  0  0  0
 27 26  1  0  0  0
 27 28  2  0  0  0
 27 31  1  0  0  0
 27 29  1  0  0  0
 25 26  1  0  0  0
 32 33  1  0  0  0
 32 31  1  0  0  0
 29 30  1  0  0  0
 20 21  1  0  0  0
 20  2  1  0  0  0
  1  2  2  0  0  0
  2  3  1  0  0  0
  3  4  1  0  0  0
  4  5  1  0  0  0
  5  6  1  0  0  0
  6  7  1  0  0  0
  7  8  1  0  0  0
  8  9  1  0  0  0
  9 10  1  0  0  0
 10 11  2  0  0  0
 11 12  1  0  0  0
 12 13  1  0  0  0
 13 14  1  0  0  0
 14 15  1  0  0  0
 15 16  1  0  0  0
 16 17  1  0  0  0
 17 18  1  0  0  0
 18 19  1  0  0  0
M  CHG 1  28  -1
M  END
> <minimizedAffinity>
-7.65057

> <CNNscore>
0.8486319184

> <CNNaffinity>
6.9087433815

> <CNN_VS>
5.8629803658

> <CNNaffinity_variance>
0.3752493858

$$$$
/media/chris/experiments/cd1a-new-docking/inputs/ligands/4x6c_ligand.pdb


 37 36  0  0  0  0  0  0  0  0999 V2000
  -39.6556   61.2986   65.9522 O   0  0  0  0  0  0  0  0  0  0  0  0
  -40.5604   60.6404   65.5388 C   0  0  0  0  0  0  0  0  0  0  0  0
  -41.5170   59.8814   66.3990 C   0  0  0  0  0  0  0  0  0  0  0  0
  -42.4274   58.9648   65.6038 C   0  0  0  0  0  0  0  0  0  0  0  0
  -43.8709   59.4197   65.6079 C   0  0  0  0  0  0  0  0  0  0  0  0
  -44.8785   58.3042   65.7568 C   0  0  0  0  0  0  0  0  0  0  0  0
  -46.2234   58.6115   65.1492 C   0  0  0  0  0  0  0  0  0  0  0  0
  -46.9595   59.6890   65.8993 C   0  0  0  0  0  0  0  0  0  0  0  0
  -48.3932   59.8845   65.5038 C   0  0  0  0  0  0  0  0  0  0  0  0
  -49.1317   58.6231   65.3468 C   0  0  0  0  0  0  0  0  0  0  0  0
  -49.6439   58.1173   64.2466 C   0  0  0  0  0  0  0  0  0  0  0  0
  -49.5902   58.6771   62.8726 C   0  0  0  0  0  0  0  0  0  0  0  0
  -50.7057   58.2401   61.9452 C   0  0  0  0  0  0  0  0  0  0  0  0
  -50.2601   57.2085   60.9455 C   0  0  0  0  0  0  0  0  0  0  0  0
  -50.3267   57.6555   59.5075 C   0  0  0  0  0  0  0  0  0  0  0  0
  -49.2483   57.0271   58.6527 C   0  0  0  0  0  0  0  0  0  0  0  0
  -48.2943   56.1321   59.3933 C   0  0  0  0  0  0  0  0  0  0  0  0
  -47.1341   55.7188   58.5794 C   0  0  0  0  0  0  0  0  0  0  0  0
  -46.5029   56.8263   57.8644 C   0  0  0  0  0  0  0  0  0  0  0  0
  -40.8349   60.4873   64.2434 O   0  0  0  0  0  0  0  0  0  0  0  0
  -40.1319   61.3342   63.3072 C   0  0  0  0  0  0  0  0  0  0  0  0
  -39.2814   60.4307   62.4442 C   0  0  0  0  0  0  0  0  0  0  0  0
  -39.3637   60.8563   61.0840 O   0  0  0  0  0  0  0  0  0  0  0  0
  -38.9927   61.7486   61.0013 H   0  0  0  0  0  0  0  0  0  0  0  0
  -37.8247   60.3616   62.8336 C   0  0  0  0  0  0  0  0  0  0  0  0
  -37.4326   61.6400   63.3728 O   0  0  0  0  0  0  0  0  0  0  0  0
  -36.3880   61.7014   64.5705 P   0  0  0  0  0  0  0  0  0  0  0  0
  -36.5293   63.0299   65.2003 O   0  0  0  0  0  0  0  0  0  0  0  0
  -36.6033   60.4913   65.3878 O   0  0  0  0  0  0  0  0  0  0  0  0
  -37.4906   60.5189   65.7789 H   0  0  0  0  0  0  0  0  0  0  0  0
  -34.9274   61.6010   63.9594 O   0  0  0  0  0  0  0  0  0  0  0  0
  -33.9595   60.7069   64.5573 C   0  0  0  0  0  0  0  0  0  0  0  0
  -34.0101   59.4359   63.7403 C   0  0  0  0  0  0  0  0  0  0  0  0
  -32.6833   58.9253   63.2142 N   0  0  0  0  0  0  0  0  0  0  0  0
  -31.6946   60.0379   63.0748 C   0  0  0  0  0  0  0  0  0  0  0  0
  -32.8858   58.2953   61.8735 C   0  0  0  0  0  0  0  0  0  0  0  0
  -32.1276   57.9070   64.1595 C   0  0  0  0  0  0  0  0  0  0  0  0
 34 33  1  0  0  0
 34 35  1  0  0  0
 34 36  1  0  0  0
 34 37  1  0  0  0
 22 23  1  0  0  0
 22 25  1  0  0  0
 22 21  1  0  0  0
 23 24  1  0  0  0
 27 26  1  0  0  0
 27 28  2  0  0  0
 27 31  1  0  0  0
 27 29  1  0  0  0
 25 26  1  0  0  0
 32 33  1  0  0  0
 32 31  1  0  0  0
 29 30  1  0  0  0
 20 21  1  0  0  0
 20  2  1  0  0  0
  1  2  2  0  0  0
  2  3  1  0  0  0
  3  4  1  0  0  0
  4  5  1  0  0  0
  5  6  1  0  0  0
  6  7  1  0  0  0
  7  8  1  0  0  0
  8  9  1  0  0  0
  9 10  1  0  0  0
 10 11  2  0  0  0
 11 12  1  0  0  0
 12 13  1  0  0  0
 13 14  1  0  0  0
 14 15  1  0  0  0
 15 16  1  0  0  0
 16 17  1  0  0  0
 17 18  1  0  0  0
 18 19  1  0  0  0
M  CHG 1  28  -1
M  END
> <minimizedAffinity>
-7.62597

> <CNNscore>
0.8100599051

> <CNNaffinity>
6.6344819069

> <CNN_VS>
5.3743276596

> <CNNaffinity_variance>
0.8278975487

$$$$
/media/chris/experiments/cd1a-new-docking/inputs/ligands/4x6c_ligand.pdb


 37 36  0  0  0  0  0  0  0  0999 V2000
  -42.1303   57.9368   65.8409 O   0  0  0  0  0  0  0  0  0  0  0  0
  -42.4561   59.0843   65.8297 C   0  0  0  0  0  0  0  0  0  0  0  0
  -43.8713   59.5621   65.8230 C   0  0  0  0  0  0  0  0  0  0  0  0
  -44.7968   58.6567   65.0324 C   0  0  0  0  0  0  0  0  0  0  0  0
  -46.2590   58.9976   65.2231 C   0  0  0  0  0  0  0  0  0  0  0  0
  -47.1636   57.8004   65.3968 C   0  0  0  0  0  0  0  0  0  0  0  0
  -48.3542   57.7959   64.4722 C   0  0  0  0  0  0  0  0  0  0  0  0
  -49.6289   58.1775   65.1758 C   0  0  0  0  0  0  0  0  0  0  0  0
  -49.9446   59.6440   65.1861 C   0  0  0  0  0  0  0  0  0  0  0  0
  -51.0390   60.0108   64.2757 C   0  0  0  0  0  0  0  0  0  0  0  0
  -50.9644   60.2929   62.9937 C   0  0  0  0  0  0  0  0  0  0  0  0
  -49.7590   60.2922   62.1268 C   0  0  0  0  0  0  0  0  0  0  0  0
  -49.7427   59.2453   61.0318 C   0  0  0  0  0  0  0  0  0  0  0  0
  -50.4308   57.9704   61.4360 C   0  0  0  0  0  0  0  0  0  0  0  0
  -50.4911   56.9185   60.3582 C   0  0  0  0  0  0  0  0  0  0  0  0
  -49.4364   57.1171   59.2920 C   0  0  0  0  0  0  0  0  0  0  0  0
  -48.4922   55.9614   59.1121 C   0  0  0  0  0  0  0  0  0  0  0  0
  -47.1186   56.3806   58.7701 C   0  0  0  0  0  0  0  0  0  0  0  0
  -47.0323   57.1101   57.5066 C   0  0  0  0  0  0  0  0  0  0  0  0
  -41.5933   60.1001   65.8133 O   0  0  0  0  0  0  0  0  0  0  0  0
  -41.5811   60.9470   64.6425 C   0  0  0  0  0  0  0  0  0  0  0  0
  -40.2083   61.5742   64.5632 C   0  0  0  0  0  0  0  0  0  0  0  0
  -39.8938   62.1908   65.8118 O   0  0  0  0  0  0  0  0  0  0  0  0
  -39.8497   61.5136   66.5049 H   0  0  0  0  0  0  0  0  0  0  0  0
  -39.0912   60.6233   64.2076 C   0  0  0  0  0  0  0  0  0  0  0  0
  -39.4476   59.9297   62.9949 O   0  0  0  0  0  0  0  0  0  0  0  0
  -38.7744   60.3557   61.6184 P   0  0  0  0  0  0  0  0  0  0  0  0
  -39.8696   60.7016   60.6898 O   0  0  0  0  0  0  0  0  0  0  0  0
  -37.7543   61.3734   61.9384 O   0  0  0  0  0  0  0  0  0  0  0  0
  -38.1869   62.1615   62.3026 H   0  0  0  0  0  0  0  0  0  0  0  0
  -38.0114   59.0956   61.0294 O   0  0  0  0  0  0  0  0  0  0  0  0
  -37.6094   58.0227   61.9131 C   0  0  0  0  0  0  0  0  0  0  0  0
  -36.1078   57.9142   61.7760 C   0  0  0  0  0  0  0  0  0  0  0  0
  -35.3084   58.0321   63.0586 N   0  0  0  0  0  0  0  0  0  0  0  0
  -35.7444   57.0123   64.0611 C   0  0  0  0  0  0  0  0  0  0  0  0
  -35.5030   59.3931   63.6461 C   0  0  0  0  0  0  0  0  0  0  0  0
  -33.8559   57.8240   62.7650 C   0  0  0  0  0  0  0  0  0  0  0  0
 34 33  1  0  0  0
 34 35  1  0  0  0
 34 36  1  0  0  0
 34 37  1  0  0  0
 22 23  1  0  0  0
 22 25  1  0  0  0
 22 21  1  0  0  0
 23 24  1  0  0  0
 27 26  1  0  0  0
 27 28  2  0  0  0
 27 31  1  0  0  0
 27 29  1  0  0  0
 25 26  1  0  0  0
 32 33  1  0  0  0
 32 31  1  0  0  0
 29 30  1  0  0  0
 20 21  1  0  0  0
 20  2  1  0  0  0
  1  2  2  0  0  0
  2  3  1  0  0  0
  3  4  1  0  0  0
  4  5  1  0  0  0
  5  6  1  0  0  0
  6  7  1  0  0  0
  7  8  1  0  0  0
  8  9  1  0  0  0
  9 10  1  0  0  0
 10 11  2  0  0  0
 11 12  1  0  0  0
 12 13  1  0  0  0
 13 14  1  0  0  0
 14 15  1  0  0  0
 15 16  1  0  0  0
 16 17  1  0  0  0
 17 18  1  0  0  0
 18 19  1  0  0  0
M  CHG 1  28  -1
M  END
> <minimizedAffinity>
-8.47313

> <CNNscore>
0.7952368259

> <CNNaffinity>
6.7869462967

> <CNN_VS>
5.3972296715

> <CNNaffinity_variance>
0.3751180172

$$$$
/media/chris/experiments/cd1a-new-docking/inputs/ligands/4x6c_ligand.pdb


 37 36  0  0  0  0  0  0  0  0999 V2000
  -42.8033   57.3766   65.8746 O   0  0  0  0  0  0  0  0  0  0  0  0
  -42.5932   58.5502   65.8354 C   0  0  0  0  0  0  0  0  0  0  0  0
  -43.6460   59.5924   65.6444 C   0  0  0  0  0  0  0  0  0  0  0  0
  -44.9574   59.0217   65.1384 C   0  0  0  0  0  0  0  0  0  0  0  0
  -45.9646   58.7898   66.2439 C   0  0  0  0  0  0  0  0  0  0  0  0
  -47.2136   59.6332   66.1401 C   0  0  0  0  0  0  0  0  0  0  0  0
  -47.1555   60.6789   65.0558 C   0  0  0  0  0  0  0  0  0  0  0  0
  -48.4802   60.8647   64.3660 C   0  0  0  0  0  0  0  0  0  0  0  0
  -49.5889   59.9784   64.8513 C   0  0  0  0  0  0  0  0  0  0  0  0
  -50.8670   60.2150   64.1646 C   0  0  0  0  0  0  0  0  0  0  0  0
  -51.1764   59.9443   62.9157 C   0  0  0  0  0  0  0  0  0  0  0  0
  -50.3230   59.3087   61.8803 C   0  0  0  0  0  0  0  0  0  0  0  0
  -50.3143   57.7936   61.8810 C   0  0  0  0  0  0  0  0  0  0  0  0
  -50.8905   57.2084   60.6210 C   0  0  0  0  0  0  0  0  0  0  0  0
  -49.8934   57.0020   59.5096 C   0  0  0  0  0  0  0  0  0  0  0  0
  -48.9875   55.8154   59.7539 C   0  0  0  0  0  0  0  0  0  0  0  0
  -47.7485   55.7788   58.9035 C   0  0  0  0  0  0  0  0  0  0  0  0
  -47.8867   56.5328   57.6419 C   0  0  0  0  0  0  0  0  0  0  0  0
  -46.6182   57.0514   57.1339 C   0  0  0  0  0  0  0  0  0  0  0  0
  -41.3802   59.0907   65.9495 O   0  0  0  0  0  0  0  0  0  0  0  0
  -40.4926   58.9852   64.8141 C   0  0  0  0  0  0  0  0  0  0  0  0
  -39.5911   60.1980   64.8417 C   0  0  0  0  0  0  0  0  0  0  0  0
  -39.3982   60.6170   66.1927 O   0  0  0  0  0  0  0  0  0  0  0  0
  -38.9392   59.9189   66.6855 H   0  0  0  0  0  0  0  0  0  0  0  0
  -38.2359   60.0011   64.2067 C   0  0  0  0  0  0  0  0  0  0  0  0
  -37.5981   58.8674   64.8287 O   0  0  0  0  0  0  0  0  0  0  0  0
  -36.8135   57.8157   63.9300 P   0  0  0  0  0  0  0  0  0  0  0  0
  -36.0121   56.9775   64.8447 O   0  0  0  0  0  0  0  0  0  0  0  0
  -37.8125   57.1724   63.0543 O   0  0  0  0  0  0  0  0  0  0  0  0
  -38.4436   56.6730   63.5960 H   0  0  0  0  0  0  0  0  0  0  0  0
  -35.8129   58.6140   62.9927 O   0  0  0  0  0  0  0  0  0  0  0  0
  -34.7790   57.9006   62.2746 C   0  0  0  0  0  0  0  0  0  0  0  0
  -33.5966   58.8404   62.2092 C   0  0  0  0  0  0  0  0  0  0  0  0
  -32.5407   58.6631   63.2823 N   0  0  0  0  0  0  0  0  0  0  0  0
  -31.3366   59.5020   62.9973 C   0  0  0  0  0  0  0  0  0  0  0  0
  -32.1213   57.2291   63.3393 C   0  0  0  0  0  0  0  0  0  0  0  0
  -33.1019   59.0667   64.6095 C   0  0  0  0  0  0  0  0  0  0  0  0
 34 33  1  0  0  0
 34 35  1  0  0  0
 34 36  1  0  0  0
 34 37  1  0  0  0
 22 23  1  0  0  0
 22 25  1  0  0  0
 22 21  1  0  0  0
 23 24  1  0  0  0
 27 26  1  0  0  0
 27 28  2  0  0  0
 27 31  1  0  0  0
 27 29  1  0  0  0
 25 26  1  0  0  0
 32 33  1  0  0  0
 32 31  1  0  0  0
 29 30  1  0  0  0
 20 21  1  0  0  0
 20  2  1  0  0  0
  1  2  2  0  0  0
  2  3  1  0  0  0
  3  4  1  0  0  0
  4  5  1  0  0  0
  5  6  1  0  0  0
  6  7  1  0  0  0
  7  8  1  0  0  0
  8  9  1  0  0  0
  9 10  1  0  0  0
 10 11  2  0  0  0
 11 12  1  0  0  0
 12 13  1  0  0  0
 13 14  1  0  0  0
 14 15  1  0  0  0
 15 16  1  0  0  0
 16 17  1  0  0  0
 17 18  1  0  0  0
 18 19  1  0  0  0
M  CHG 1  28  -1
M  END
> <minimizedAffinity>
-7.61132

> <CNNscore>
0.7033488750

> <CNNaffinity>
6.3730554581

> <CNN_VS>
4.4824814796

> <CNNaffinity_variance>
0.6726638675

$$$$
/media/chris/experiments/cd1a-new-docking/inputs/ligands/4x6c_ligand.pdb


 37 36  0  0  0  0  0  0  0  0999 V2000
  -39.7008   61.3069   66.1502 O   0  0  0  0  0  0  0  0  0  0  0  0
  -40.4829   60.6039   65.5871 C   0  0  0  0  0  0  0  0  0  0  0  0
  -41.5458   59.8052   66.2679 C   0  0  0  0  0  0  0  0  0  0  0  0
  -42.4290   59.0466   65.2954 C   0  0  0  0  0  0  0  0  0  0  0  0
  -43.8588   59.5426   65.2878 C   0  0  0  0  0  0  0  0  0  0  0  0
  -44.8975   58.4614   65.4720 C   0  0  0  0  0  0  0  0  0  0  0  0
  -46.2670   58.8384   64.9671 C   0  0  0  0  0  0  0  0  0  0  0  0
  -46.9074   59.9186   65.7969 C   0  0  0  0  0  0  0  0  0  0  0  0
  -48.3397   60.2197   65.4678 C   0  0  0  0  0  0  0  0  0  0  0  0
  -49.1889   59.0211   65.4109 C   0  0  0  0  0  0  0  0  0  0  0  0
  -49.7670   58.4887   64.3568 C   0  0  0  0  0  0  0  0  0  0  0  0
  -49.6941   58.9463   62.9463 C   0  0  0  0  0  0  0  0  0  0  0  0
  -50.8278   58.4883   62.0516 C   0  0  0  0  0  0  0  0  0  0  0  0
  -50.4384   57.3402   61.1616 C   0  0  0  0  0  0  0  0  0  0  0  0
  -50.4558   57.6526   59.6871 C   0  0  0  0  0  0  0  0  0  0  0  0
  -49.1838   57.2273   58.9874 C   0  0  0  0  0  0  0  0  0  0  0  0
  -48.7105   55.8403   59.3217 C   0  0  0  0  0  0  0  0  0  0  0  0
  -47.4618   55.4689   58.6275 C   0  0  0  0  0  0  0  0  0  0  0  0
  -46.5306   56.5846   58.4719 C   0  0  0  0  0  0  0  0  0  0  0  0
  -40.5067   60.4301   64.2658 O   0  0  0  0  0  0  0  0  0  0  0  0
  -39.7157   61.3312   63.4595 C   0  0  0  0  0  0  0  0  0  0  0  0
  -38.8005   60.4792   62.6105 C   0  0  0  0  0  0  0  0  0  0  0  0
  -38.8516   60.9290   61.2565 O   0  0  0  0  0  0  0  0  0  0  0  0
  -38.5132   61.8365   61.2042 H   0  0  0  0  0  0  0  0  0  0  0  0
  -37.3567   60.4584   63.0505 C   0  0  0  0  0  0  0  0  0  0  0  0
  -37.1000   61.6385   63.8382 O   0  0  0  0  0  0  0  0  0  0  0  0
  -36.4716   61.4923   65.2919 P   0  0  0  0  0  0  0  0  0  0  0  0
  -36.8391   62.7077   66.0464 O   0  0  0  0  0  0  0  0  0  0  0  0
  -36.8874   60.1729   65.8066 O   0  0  0  0  0  0  0  0  0  0  0  0
  -37.8519   60.1544   65.9075 H   0  0  0  0  0  0  0  0  0  0  0  0
  -34.8919   61.4632   65.1479 O   0  0  0  0  0  0  0  0  0  0  0  0
  -34.2692   62.0154   63.9643 C   0  0  0  0  0  0  0  0  0  0  0  0
  -33.2160   62.9790   64.4619 C   0  0  0  0  0  0  0  0  0  0  0  0
  -33.1491   64.3196   63.7574 N   0  0  0  0  0  0  0  0  0  0  0  0
  -33.0964   65.4436   64.7417 C   0  0  0  0  0  0  0  0  0  0  0  0
  -34.3597   64.4938   62.8976 C   0  0  0  0  0  0  0  0  0  0  0  0
  -31.9230   64.3754   62.9013 C   0  0  0  0  0  0  0  0  0  0  0  0
 34 33  1  0  0  0
 34 35  1  0  0  0
 34 36  1  0  0  0
 34 37  1  0  0  0
 22 23  1  0  0  0
 22 25  1  0  0  0
 22 21  1  0  0  0
 23 24  1  0  0  0
 27 26  1  0  0  0
 27 28  2  0  0  0
 27 31  1  0  0  0
 27 29  1  0  0  0
 25 26  1  0  0  0
 32 33  1  0  0  0
 32 31  1  0  0  0
 29 30  1  0  0  0
 20 21  1  0  0  0
 20  2  1  0  0  0
  1  2  2  0  0  0
  2  3  1  0  0  0
  3  4  1  0  0  0
  4  5  1  0  0  0
  5  6  1  0  0  0
  6  7  1  0  0  0
  7  8  1  0  0  0
  8  9  1  0  0  0
  9 10  1  0  0  0
 10 11  2  0  0  0
 11 12  1  0  0  0
 12 13  1  0  0  0
 13 14  1  0  0  0
 14 15  1  0  0  0
 15 16  1  0  0  0
 16 17  1  0  0  0
 17 18  1  0  0  0
 18 19  1  0  0  0
M  CHG 1  28  -1
M  END
> <minimizedAffinity>
-7.58080

> <CNNscore>
0.6874376535

> <CNNaffinity>
6.3068094254

> <CNN_VS>
4.3355383873

> <CNNaffinity_variance>
0.8160644770

$$$$
/media/chris/experiments/cd1a-new-docking/inputs/ligands/4x6c_ligand.pdb


 37 36  0  0  0  0  0  0  0  0999 V2000
  -41.7182   58.4011   66.2904 O   0  0  0  0  0  0  0  0  0  0  0  0
  -42.0302   59.5045   65.9615 C   0  0  0  0  0  0  0  0  0  0  0  0
  -43.4395   59.9818   65.8301 C   0  0  0  0  0  0  0  0  0  0  0  0
  -44.3099   59.0379   65.0221 C   0  0  0  0  0  0  0  0  0  0  0  0
  -45.2243   58.1955   65.8851 C   0  0  0  0  0  0  0  0  0  0  0  0
  -46.5326   58.8593   66.2449 C   0  0  0  0  0  0  0  0  0  0  0  0
  -47.3123   59.3568   65.0544 C   0  0  0  0  0  0  0  0  0  0  0  0
  -48.0403   58.2490   64.3414 C   0  0  0  0  0  0  0  0  0  0  0  0
  -49.4738   58.0591   64.7405 C   0  0  0  0  0  0  0  0  0  0  0  0
  -50.1658   59.3198   65.0449 C   0  0  0  0  0  0  0  0  0  0  0  0
  -50.8372   60.0934   64.2205 C   0  0  0  0  0  0  0  0  0  0  0  0
  -51.0904   59.8834   62.7727 C   0  0  0  0  0  0  0  0  0  0  0  0
  -49.9639   60.2936   61.8464 C   0  0  0  0  0  0  0  0  0  0  0  0
  -49.7449   59.3126   60.7275 C   0  0  0  0  0  0  0  0  0  0  0  0
  -49.9822   57.8711   61.0987 C   0  0  0  0  0  0  0  0  0  0  0  0
  -48.9973   56.9311   60.4393 C   0  0  0  0  0  0  0  0  0  0  0  0
  -48.8783   57.0823   58.9485 C   0  0  0  0  0  0  0  0  0  0  0  0
  -47.6636   56.4517   58.3952 C   0  0  0  0  0  0  0  0  0  0  0  0
  -46.9852   57.2759   57.3969 C   0  0  0  0  0  0  0  0  0  0  0  0
  -41.1553   60.4631   65.6575 O   0  0  0  0  0  0  0  0  0  0  0  0
  -39.7995   60.0604   65.3616 C   0  0  0  0  0  0  0  0  0  0  0  0
  -38.9684   61.3206   65.2892 C   0  0  0  0  0  0  0  0  0  0  0  0
  -39.6588   62.3845   65.9446 O   0  0  0  0  0  0  0  0  0  0  0  0
  -39.7603   62.1729   66.8857 H   0  0  0  0  0  0  0  0  0  0  0  0
  -37.5871   61.2101   65.8878 C   0  0  0  0  0  0  0  0  0  0  0  0
  -36.8733   62.4347   65.6240 O   0  0  0  0  0  0  0  0  0  0  0  0
  -35.5533   62.7684   66.4460 P   0  0  0  0  0  0  0  0  0  0  0  0
  -35.3375   64.2260   66.3451 O   0  0  0  0  0  0  0  0  0  0  0  0
  -35.7136   62.1555   67.7792 O   0  0  0  0  0  0  0  0  0  0  0  0
  -36.4544   62.5773   68.2420 H   0  0  0  0  0  0  0  0  0  0  0  0
  -34.3328   62.0417   65.7393 O   0  0  0  0  0  0  0  0  0  0  0  0
  -34.3037   61.9269   64.2972 C   0  0  0  0  0  0  0  0  0  0  0  0
  -32.8702   62.1818   63.8905 C   0  0  0  0  0  0  0  0  0  0  0  0
  -32.4899   63.6296   63.6511 N   0  0  0  0  0  0  0  0  0  0  0  0
  -33.6283   64.3946   63.0565 C   0  0  0  0  0  0  0  0  0  0  0  0
  -31.3290   63.6929   62.7110 C   0  0  0  0  0  0  0  0  0  0  0  0
  -32.1095   64.2693   64.9493 C   0  0  0  0  0  0  0  0  0  0  0  0
 34 33  1  0  0  0
 34 35  1  0  0  0
 34 36  1  0  0  0
 34 37  1  0  0  0
 22 23  1  0  0  0
 22 25  1  0  0  0
 22 21  1  0  0  0
 23 24  1  0  0  0
 27 26  1  0  0  0
 27 28  2  0  0  0
 27 31  1  0  0  0
 27 29  1  0  0  0
 25 26  1  0  0  0
 32 33  1  0  0  0
 32 31  1  0  0  0
 29 30  1  0  0  0
 20 21  1  0  0  0
 20  2  1  0  0  0
  1  2  2  0  0  0
  2  3  1  0  0  0
  3  4  1  0  0  0
  4  5  1  0  0  0
  5  6  1  0  0  0
  6  7  1  0  0  0
  7  8  1  0  0  0
  8  9  1  0  0  0
  9 10  1  0  0  0
 10 11  2  0  0  0
 11 12  1  0  0  0
 12 13  1  0  0  0
 13 14  1  0  0  0
 14 15  1  0  0  0
 15 16  1  0  0  0
 16 17  1  0  0  0
 17 18  1  0  0  0
 18 19  1  0  0  0
M  CHG 1  28  -1
M  END
> <minimizedAffinity>
-8.17275

> <CNNscore>
0.6868330240

> <CNNaffinity>
6.1448426247

> <CNN_VS>
4.2204809189

> <CNNaffinity_variance>
0.2494497299

$$$$
/media/chris/experiments/cd1a-new-docking/inputs/ligands/4x6c_ligand.pdb


 37 36  0  0  0  0  0  0  0  0999 V2000
  -38.4420   60.8403   66.3677 O   0  0  0  0  0  0  0  0  0  0  0  0
  -39.4278   60.8089   65.6967 C   0  0  0  0  0  0  0  0  0  0  0  0
  -40.6200   59.9559   65.9837 C   0  0  0  0  0  0  0  0  0  0  0  0
  -41.8353   60.3438   65.1628 C   0  0  0  0  0  0  0  0  0  0  0  0
  -43.1357   59.8702   65.7754 C   0  0  0  0  0  0  0  0  0  0  0  0
  -44.0371   59.1167   64.8260 C   0  0  0  0  0  0  0  0  0  0  0  0
  -45.4403   58.9223   65.3416 C   0  0  0  0  0  0  0  0  0  0  0  0
  -46.2608   60.1816   65.2618 C   0  0  0  0  0  0  0  0  0  0  0  0
  -47.7170   59.9836   64.9610 C   0  0  0  0  0  0  0  0  0  0  0  0
  -48.1031   58.5691   64.8554 C   0  0  0  0  0  0  0  0  0  0  0  0
  -48.7578   57.9802   63.8791 C   0  0  0  0  0  0  0  0  0  0  0  0
  -49.2575   58.5854   62.6188 C   0  0  0  0  0  0  0  0  0  0  0  0
  -50.6182   58.1044   62.1578 C   0  0  0  0  0  0  0  0  0  0  0  0
  -50.5964   57.5526   60.7589 C   0  0  0  0  0  0  0  0  0  0  0  0
  -49.4012   57.9646   59.9381 C   0  0  0  0  0  0  0  0  0  0  0  0
  -49.0955   56.9873   58.8246 C   0  0  0  0  0  0  0  0  0  0  0  0
  -48.0375   55.9696   59.1479 C   0  0  0  0  0  0  0  0  0  0  0  0
  -46.8941   56.0031   58.2148 C   0  0  0  0  0  0  0  0  0  0  0  0
  -47.0190   57.0282   57.1807 C   0  0  0  0  0  0  0  0  0  0  0  0
  -39.5940   61.5306   64.5885 O   0  0  0  0  0  0  0  0  0  0  0  0
  -38.4347   61.7498   63.7543 C   0  0  0  0  0  0  0  0  0  0  0  0
  -38.3502   60.5831   62.7971 C   0  0  0  0  0  0  0  0  0  0  0  0
  -38.0981   61.0670   61.4779 O   0  0  0  0  0  0  0  0  0  0  0  0
  -37.2344   61.5080   61.4547 H   0  0  0  0  0  0  0  0  0  0  0  0
  -37.2987   59.5543   63.1354 C   0  0  0  0  0  0  0  0  0  0  0  0
  -37.6471   58.3128   62.4902 O   0  0  0  0  0  0  0  0  0  0  0  0
  -36.7848   57.7984   61.2569 P   0  0  0  0  0  0  0  0  0  0  0  0
  -36.7650   56.3233   61.3279 O   0  0  0  0  0  0  0  0  0  0  0  0
  -37.3298   58.4532   60.0515 O   0  0  0  0  0  0  0  0  0  0  0  0
  -38.2422   58.1573   59.9073 H   0  0  0  0  0  0  0  0  0  0  0  0
  -35.2973   58.3185   61.4413 O   0  0  0  0  0  0  0  0  0  0  0  0
  -34.3872   57.5975   62.3047 C   0  0  0  0  0  0  0  0  0  0  0  0
  -33.0360   58.2494   62.1184 C   0  0  0  0  0  0  0  0  0  0  0  0
  -32.4675   58.9680   63.3260 N   0  0  0  0  0  0  0  0  0  0  0  0
  -31.1015   59.5041   63.0404 C   0  0  0  0  0  0  0  0  0  0  0  0
  -32.3769   58.0179   64.4768 C   0  0  0  0  0  0  0  0  0  0  0  0
  -33.3615   60.1093   63.6970 C   0  0  0  0  0  0  0  0  0  0  0  0
 34 33  1  0  0  0
 34 35  1  0  0  0
 34 36  1  0  0  0
 34 37  1  0  0  0
 22 23  1  0  0  0
 22 25  1  0  0  0
 22 21  1  0  0  0
 23 24  1  0  0  0
 27 26  1  0  0  0
 27 28  2  0  0  0
 27 31  1  0  0  0
 27 29  1  0  0  0
 25 26  1  0  0  0
 32 33  1  0  0  0
 32 31  1  0  0  0
 29 30  1  0  0  0
 20 21  1  0  0  0
 20  2  1  0  0  0
  1  2  2  0  0  0
  2  3  1  0  0  0
  3  4  1  0  0  0
  4  5  1  0  0  0
  5  6  1  0  0  0
  6  7  1  0  0  0
  7  8  1  0  0  0
  8  9  1  0  0  0
  9 10  1  0  0  0
 10 11  2  0  0  0
 11 12  1  0  0  0
 12 13  1  0  0  0
 13 14  1  0  0  0
 14 15  1  0  0  0
 15 16  1  0  0  0
 16 17  1  0  0  0
 17 18  1  0  0  0
 18 19  1  0  0  0
M  CHG 1  28  -1
M  END
> <minimizedAffinity>
-7.75625

> <CNNscore>
0.6376794577

> <CNNaffinity>
6.3914065361

> <CNN_VS>
4.0756688118

> <CNNaffinity_variance>
0.4865390658

$$$$
/media/chris/experiments/cd1a-new-docking/inputs/ligands/4x6c_ligand.pdb


 37 36  0  0  0  0  0  0  0  0999 V2000
  -40.8865   61.9652   65.9639 O   0  0  0  0  0  0  0  0  0  0  0  0
  -40.9832   61.2981   64.9798 C   0  0  0  0  0  0  0  0  0  0  0  0
  -41.6339   59.9545   64.9289 C   0  0  0  0  0  0  0  0  0  0  0  0
  -42.7740   59.8123   65.9197 C   0  0  0  0  0  0  0  0  0  0  0  0
  -44.1246   59.6829   65.2492 C   0  0  0  0  0  0  0  0  0  0  0  0
  -44.4211   58.3079   64.6986 C   0  0  0  0  0  0  0  0  0  0  0  0
  -45.6412   57.6593   65.3012 C   0  0  0  0  0  0  0  0  0  0  0  0
  -46.3874   58.5856   66.2235 C   0  0  0  0  0  0  0  0  0  0  0  0
  -47.6753   59.1328   65.6829 C   0  0  0  0  0  0  0  0  0  0  0  0
  -47.6664   60.5942   65.5240 C   0  0  0  0  0  0  0  0  0  0  0  0
  -48.2425   61.3089   64.5827 C   0  0  0  0  0  0  0  0  0  0  0  0
  -49.0709   60.8279   63.4485 C   0  0  0  0  0  0  0  0  0  0  0  0
  -50.5058   60.4806   63.7888 C   0  0  0  0  0  0  0  0  0  0  0  0
  -51.1654   59.6359   62.7335 C   0  0  0  0  0  0  0  0  0  0  0  0
  -50.4104   58.3841   62.3663 C   0  0  0  0  0  0  0  0  0  0  0  0
  -49.8571   58.4304   60.9591 C   0  0  0  0  0  0  0  0  0  0  0  0
  -50.4619   57.4360   60.0077 C   0  0  0  0  0  0  0  0  0  0  0  0
  -49.5974   57.1405   58.8482 C   0  0  0  0  0  0  0  0  0  0  0  0
  -48.2879   56.6091   59.2213 C   0  0  0  0  0  0  0  0  0  0  0  0
  -40.5123   61.6626   63.7873 O   0  0  0  0  0  0  0  0  0  0  0  0
  -41.4224   61.6118   62.6661 C   0  0  0  0  0  0  0  0  0  0  0  0
  -40.7152   60.8718   61.5541 C   0  0  0  0  0  0  0  0  0  0  0  0
  -40.9146   61.5623   60.3207 O   0  0  0  0  0  0  0  0  0  0  0  0
  -40.5069   62.4409   60.3723 H   0  0  0  0  0  0  0  0  0  0  0  0
  -39.2318   60.6798   61.7572 C   0  0  0  0  0  0  0  0  0  0  0  0
  -39.0172   59.4048   62.3952 O   0  0  0  0  0  0  0  0  0  0  0  0
  -37.6268   58.6557   62.2078 P   0  0  0  0  0  0  0  0  0  0  0  0
  -37.8338   57.2509   62.6139 O   0  0  0  0  0  0  0  0  0  0  0  0
  -37.1655   58.9475   60.8364 O   0  0  0  0  0  0  0  0  0  0  0  0
  -37.7867   58.5639   60.1978 H   0  0  0  0  0  0  0  0  0  0  0  0
  -36.5764   59.3047   63.2041 O   0  0  0  0  0  0  0  0  0  0  0  0
  -35.4780   58.5084   63.7071 C   0  0  0  0  0  0  0  0  0  0  0  0
  -34.2797   59.4295   63.7394 C   0  0  0  0  0  0  0  0  0  0  0  0
  -32.9361   58.7902   63.4497 N   0  0  0  0  0  0  0  0  0  0  0  0
  -33.0475   57.7714   62.3614 C   0  0  0  0  0  0  0  0  0  0  0  0
  -32.4259   58.1173   64.6835 C   0  0  0  0  0  0  0  0  0  0  0  0
  -31.9619   59.8426   63.0222 C   0  0  0  0  0  0  0  0  0  0  0  0
 34 33  1  0  0  0
 34 35  1  0  0  0
 34 36  1  0  0  0
 34 37  1  0  0  0
 22 23  1  0  0  0
 22 25  1  0  0  0
 22 21  1  0  0  0
 23 24  1  0  0  0
 27 26  1  0  0  0
 27 28  2  0  0  0
 27 31  1  0  0  0
 27 29  1  0  0  0
 25 26  1  0  0  0
 32 33  1  0  0  0
 32 31  1  0  0  0
 29 30  1  0  0  0
 20 21  1  0  0  0
 20  2  1  0  0  0
  1  2  2  0  0  0
  2  3  1  0  0  0
  3  4  1  0  0  0
  4  5  1  0  0  0
  5  6  1  0  0  0
  6  7  1  0  0  0
  7  8  1  0  0  0
  8  9  1  0  0  0
  9 10  1  0  0  0
 10 11  2  0  0  0
 11 12  1  0  0  0
 12 13  1  0  0  0
 13 14  1  0  0  0
 14 15  1  0  0  0
 15 16  1  0  0  0
 16 17  1  0  0  0
 17 18  1  0  0  0
 18 19  1  0  0  0
M  CHG 1  28  -1
M  END
> <minimizedAffinity>
-8.06422

> <CNNscore>
0.6130583882

> <CNNaffinity>
6.4434113503

> <CNN_VS>
3.9501874447

> <CNNaffinity_variance>
0.4127090871

$$$$
/media/chris/experiments/cd1a-new-docking/inputs/ligands/4x6c_ligand.pdb


 37 36  0  0  0  0  0  0  0  0999 V2000
  -42.2409   58.0514   66.3717 O   0  0  0  0  0  0  0  0  0  0  0  0
  -42.7554   58.6693   65.4906 C   0  0  0  0  0  0  0  0  0  0  0  0
  -44.1172   58.3897   64.9441 C   0  0  0  0  0  0  0  0  0  0  0  0
  -44.7289   57.1192   65.5036 C   0  0  0  0  0  0  0  0  0  0  0  0
  -46.0291   57.3651   66.2380 C   0  0  0  0  0  0  0  0  0  0  0  0
  -46.3727   58.8233   66.4315 C   0  0  0  0  0  0  0  0  0  0  0  0
  -47.6608   59.2400   65.7685 C   0  0  0  0  0  0  0  0  0  0  0  0
  -48.3525   58.0911   65.0851 C   0  0  0  0  0  0  0  0  0  0  0  0
  -49.8495   58.0916   65.1810 C   0  0  0  0  0  0  0  0  0  0  0  0
  -50.4229   59.4359   65.3391 C   0  0  0  0  0  0  0  0  0  0  0  0
  -50.9725   60.1945   64.4164 C   0  0  0  0  0  0  0  0  0  0  0  0
  -51.1776   59.8816   62.9797 C   0  0  0  0  0  0  0  0  0  0  0  0
  -50.0878   60.3638   62.0442 C   0  0  0  0  0  0  0  0  0  0  0  0
  -49.7231   59.3430   61.0015 C   0  0  0  0  0  0  0  0  0  0  0  0
  -49.8148   57.9111   61.4631 C   0  0  0  0  0  0  0  0  0  0  0  0
  -50.3670   56.9906   60.3972 C   0  0  0  0  0  0  0  0  0  0  0  0
  -49.8204   57.2212   59.0160 C   0  0  0  0  0  0  0  0  0  0  0  0
  -48.3788   56.9238   58.9041 C   0  0  0  0  0  0  0  0  0  0  0  0
  -48.0502   55.5288   59.1907 C   0  0  0  0  0  0  0  0  0  0  0  0
  -42.1752   59.6941   64.8664 O   0  0  0  0  0  0  0  0  0  0  0  0
  -41.6198   60.7470   65.6855 C   0  0  0  0  0  0  0  0  0  0  0  0
  -40.1383   60.4761   65.8115 C   0  0  0  0  0  0  0  0  0  0  0  0
  -39.8245   59.2390   65.1718 O   0  0  0  0  0  0  0  0  0  0  0  0
  -40.0141   59.3083   64.2231 H   0  0  0  0  0  0  0  0  0  0  0  0
  -39.2421   61.5479   65.2398 C   0  0  0  0  0  0  0  0  0  0  0  0
  -39.0427   61.2794   63.8373 O   0  0  0  0  0  0  0  0  0  0  0  0
  -37.5682   61.0743   63.2776 P   0  0  0  0  0  0  0  0  0  0  0  0
  -37.1579   59.7005   63.6322 O   0  0  0  0  0  0  0  0  0  0  0  0
  -37.5909   61.4742   61.8570 O   0  0  0  0  0  0  0  0  0  0  0  0
  -38.1718   60.8757   61.3618 H   0  0  0  0  0  0  0  0  0  0  0  0
  -36.6065   62.0843   64.0340 O   0  0  0  0  0  0  0  0  0  0  0  0
  -35.8882   63.0903   63.2820 C   0  0  0  0  0  0  0  0  0  0  0  0
  -34.4868   63.1087   63.8487 C   0  0  0  0  0  0  0  0  0  0  0  0
  -33.9069   64.4753   64.1556 N   0  0  0  0  0  0  0  0  0  0  0  0
  -32.4129   64.4499   64.1080 C   0  0  0  0  0  0  0  0  0  0  0  0
  -34.3341   64.9045   65.5226 C   0  0  0  0  0  0  0  0  0  0  0  0
  -34.4009   65.4670   63.1497 C   0  0  0  0  0  0  0  0  0  0  0  0
 34 33  1  0  0  0
 34 35  1  0  0  0
 34 36  1  0  0  0
 34 37  1  0  0  0
 22 23  1  0  0  0
 22 25  1  0  0  0
 22 21  1  0  0  0
 23 24  1  0  0  0
 27 26  1  0  0  0
 27 28  2  0  0  0
 27 31  1  0  0  0
 27 29  1  0  0  0
 25 26  1  0  0  0
 32 33  1  0  0  0
 32 31  1  0  0  0
 29 30  1  0  0  0
 20 21  1  0  0  0
 20  2  1  0  0  0
  1  2  2  0  0  0
  2  3  1  0  0  0
  3  4  1  0  0  0
  4  5  1  0  0  0
  5  6  1  0  0  0
  6  7  1  0  0  0
  7  8  1  0  0  0
  8  9  1  0  0  0
  9 10  1  0  0  0
 10 11  2  0  0  0
 11 12  1  0  0  0
 12 13  1  0  0  0
 13 14  1  0  0  0
 14 15  1  0  0  0
 15 16  1  0  0  0
 16 17  1  0  0  0
 17 18  1  0  0  0
 18 19  1  0  0  0
M  CHG 1  28  -1
M  END
> <minimizedAffinity>
-7.88365

> <CNNscore>
0.5561076999

> <CNNaffinity>
6.1537480354

> <CNN_VS>
3.4221465588

> <CNNaffinity_variance>
0.3900487125

$$$$
