/media/chris/experiments/cd1a-new-docking/inputs/ligands/4x6c_ligand.pdb


 37 36  0  0  0  0  0  0  0  0999 V2000
  -42.7722   57.6426   66.0342 O   0  0  0  0  0  0  0  0  0  0  0  0
  -42.7911   58.6965   65.4756 C   0  0  0  0  0  0  0  0  0  0  0  0
  -44.0133   59.5353   65.2924 C   0  0  0  0  0  0  0  0  0  0  0  0
  -45.2670   58.8805   65.8412 C   0  0  0  0  0  0  0  0  0  0  0  0
  -46.0462   58.1241   64.7871 C   0  0  0  0  0  0  0  0  0  0  0  0
  -47.4670   58.6004   64.5967 C   0  0  0  0  0  0  0  0  0  0  0  0
  -48.5066   57.5419   64.8636 C   0  0  0  0  0  0  0  0  0  0  0  0
  -49.8645   58.1283   65.1423 C   0  0  0  0  0  0  0  0  0  0  0  0
  -49.9918   59.6027   64.8973 C   0  0  0  0  0  0  0  0  0  0  0  0
  -51.0179   59.9415   63.9007 C   0  0  0  0  0  0  0  0  0  0  0  0
  -50.8807   60.0280   62.5959 C   0  0  0  0  0  0  0  0  0  0  0  0
  -49.6596   59.7840   61.7875 C   0  0  0  0  0  0  0  0  0  0  0  0
  -49.7759   58.6947   60.7409 C   0  0  0  0  0  0  0  0  0  0  0  0
  -49.3554   57.3459   61.2566 C   0  0  0  0  0  0  0  0  0  0  0  0
  -49.1916   56.2890   60.1946 C   0  0  0  0  0  0  0  0  0  0  0  0
  -48.3942   56.7780   59.0056 C   0  0  0  0  0  0  0  0  0  0  0  0
  -47.1518   55.9860   58.7073 C   0  0  0  0  0  0  0  0  0  0  0  0
  -47.0252   55.6173   57.2835 C   0  0  0  0  0  0  0  0  0  0  0  0
  -48.1017   56.1471   56.4489 C   0  0  0  0  0  0  0  0  0  0  0  0
  -41.7167   59.2657   64.9293 O   0  0  0  0  0  0  0  0  0  0  0  0
  -40.8971   60.0983   65.7797 C   0  0  0  0  0  0  0  0  0  0  0  0
  -40.8694   61.4756   65.1579 C   0  0  0  0  0  0  0  0  0  0  0  0
  -39.9210   62.2901   65.8474 O   0  0  0  0  0  0  0  0  0  0  0  0
  -39.0325   61.9173   65.7353 H   0  0  0  0  0  0  0  0  0  0  0  0
  -40.5400   61.5051   63.6851 C   0  0  0  0  0  0  0  0  0  0  0  0
  -39.3489   60.7231   63.4655 O   0  0  0  0  0  0  0  0  0  0  0  0
  -38.7496   60.5981   61.9977 P   0  0  0  0  0  0  0  0  0  0  0  0
  -39.8452   60.9033   61.0554 O   0  0  0  0  0  0  0  0  0  0  0  0
  -37.5234   61.4193   61.9653 O   0  0  0  0  0  0  0  0  0  0  0  0
  -37.7546   62.3513   62.1028 H   0  0  0  0  0  0  0  0  0  0  0  0
  -38.3109   59.0909   61.7684 O   0  0  0  0  0  0  0  0  0  0  0  0
  -38.4388   58.1346   62.8467 C   0  0  0  0  0  0  0  0  0  0  0  0
  -37.0713   57.5114   63.0118 C   0  0  0  0  0  0  0  0  0  0  0  0
  -36.2156   58.0629   64.1349 N   0  0  0  0  0  0  0  0  0  0  0  0
  -35.1702   58.9932   63.6089 C   0  0  0  0  0  0  0  0  0  0  0  0
  -35.5381   56.9364   64.8470 C   0  0  0  0  0  0  0  0  0  0  0  0
  -37.0788   58.8106   65.1020 C   0  0  0  0  0  0  0  0  0  0  0  0
 34 33  1  0  0  0
 34 35  1  0  0  0
 34 36  1  0  0  0
 34 37  1  0  0  0
 22 23  1  0  0  0
 22 25  1  0  0  0
 22 21  1  0  0  0
 23 24  1  0  0  0
 27 26  1  0  0  0
 27 28  2  0  0  0
 27 31  1  0  0  0
 27 29  1  0  0  0
 25 26  1  0  0  0
 32 33  1  0  0  0
 32 31  1  0  0  0
 29 30  1  0  0  0
 20 21  1  0  0  0
 20  2  1  0  0  0
  1  2  2  0  0  0
  2  3  1  0  0  0
  3  4  1  0  0  0
  4  5  1  0  0  0
  5  6  1  0  0  0
  6  7  1  0  0  0
  7  8  1  0  0  0
  8  9  1  0  0  0
  9 10  1  0  0  0
 10 11  2  0  0  0
 11 12  1  0  0  0
 12 13  1  0  0  0
 13 14  1  0  0  0
 14 15  1  0  0  0
 15 16  1  0  0  0
 16 17  1  0  0  0
 17 18  1  0  0  0
 18 19  1  0  0  0
M  CHG 1  28  -1
M  END
> <minimizedAffinity>
-8.42113

> <CNNscore>
0.8342273235

> <CNNaffinity>
7.0481529236

> <CNN_VS>
5.8797616959

> <CNNaffinity_variance>
0.3162013590

$$$$
/media/chris/experiments/cd1a-new-docking/inputs/ligands/4x6c_ligand.pdb


 37 36  0  0  0  0  0  0  0  0999 V2000
  -42.5653   57.1940   65.7659 O   0  0  0  0  0  0  0  0  0  0  0  0
  -42.5950   58.3843   65.8383 C   0  0  0  0  0  0  0  0  0  0  0  0
  -43.7358   59.2318   65.3786 C   0  0  0  0  0  0  0  0  0  0  0  0
  -45.0826   58.7152   65.8485 C   0  0  0  0  0  0  0  0  0  0  0  0
  -45.8469   57.9895   64.7624 C   0  0  0  0  0  0  0  0  0  0  0  0
  -47.2675   58.4660   64.5712 C   0  0  0  0  0  0  0  0  0  0  0  0
  -48.3100   57.4581   64.9829 C   0  0  0  0  0  0  0  0  0  0  0  0
  -49.6953   58.0456   65.0151 C   0  0  0  0  0  0  0  0  0  0  0  0
  -49.7774   59.5172   64.7357 C   0  0  0  0  0  0  0  0  0  0  0  0
  -50.8791   59.8783   63.8319 C   0  0  0  0  0  0  0  0  0  0  0  0
  -50.8344   60.0440   62.5283 C   0  0  0  0  0  0  0  0  0  0  0  0
  -49.6651   59.8876   61.6269 C   0  0  0  0  0  0  0  0  0  0  0  0
  -49.7949   58.8103   60.5696 C   0  0  0  0  0  0  0  0  0  0  0  0
  -49.8843   57.4281   61.1560 C   0  0  0  0  0  0  0  0  0  0  0  0
  -48.9873   56.4081   60.5029 C   0  0  0  0  0  0  0  0  0  0  0  0
  -48.5173   56.8401   59.1313 C   0  0  0  0  0  0  0  0  0  0  0  0
  -47.1715   56.3070   58.7260 C   0  0  0  0  0  0  0  0  0  0  0  0
  -47.2065   55.5353   57.4682 C   0  0  0  0  0  0  0  0  0  0  0  0
  -47.9549   56.1976   56.4017 C   0  0  0  0  0  0  0  0  0  0  0  0
  -41.6025   59.1221   66.3356 O   0  0  0  0  0  0  0  0  0  0  0  0
  -41.7508   60.5587   66.2897 C   0  0  0  0  0  0  0  0  0  0  0  0
  -40.6005   61.0973   65.4705 C   0  0  0  0  0  0  0  0  0  0  0  0
  -40.2396   62.3925   65.9505 O   0  0  0  0  0  0  0  0  0  0  0  0
  -39.9204   62.3215   66.8637 H   0  0  0  0  0  0  0  0  0  0  0  0
  -39.3636   60.2322   65.4601 C   0  0  0  0  0  0  0  0  0  0  0  0
  -38.3364   60.8909   66.2279 O   0  0  0  0  0  0  0  0  0  0  0  0
  -36.9968   61.3597   65.5103 P   0  0  0  0  0  0  0  0  0  0  0  0
  -36.5733   60.2584   64.6221 O   0  0  0  0  0  0  0  0  0  0  0  0
  -37.2661   62.6896   64.9289 O   0  0  0  0  0  0  0  0  0  0  0  0
  -37.9471   62.6106   64.2427 H   0  0  0  0  0  0  0  0  0  0  0  0
  -35.8805   61.5509   66.6212 O   0  0  0  0  0  0  0  0  0  0  0  0
  -35.2261   62.8331   66.7674 C   0  0  0  0  0  0  0  0  0  0  0  0
  -33.9721   62.7562   65.9264 C   0  0  0  0  0  0  0  0  0  0  0  0
  -33.4327   64.0741   65.4072 N   0  0  0  0  0  0  0  0  0  0  0  0
  -32.7190   64.8262   66.4841 C   0  0  0  0  0  0  0  0  0  0  0  0
  -34.5630   64.9146   64.9062 C   0  0  0  0  0  0  0  0  0  0  0  0
  -32.4741   63.8171   64.2871 C   0  0  0  0  0  0  0  0  0  0  0  0
 34 33  1  0  0  0
 34 35  1  0  0  0
 34 36  1  0  0  0
 34 37  1  0  0  0
 22 23  1  0  0  0
 22 25  1  0  0  0
 22 21  1  0  0  0
 23 24  1  0  0  0
 27 26  1  0  0  0
 27 28  2  0  0  0
 27 31  1  0  0  0
 27 29  1  0  0  0
 25 26  1  0  0  0
 32 33  1  0  0  0
 32 31  1  0  0  0
 29 30  1  0  0  0
 20 21  1  0  0  0
 20  2  1  0  0  0
  1  2  2  0  0  0
  2  3  1  0  0  0
  3  4  1  0  0  0
  4  5  1  0  0  0
  5  6  1  0  0  0
  6  7  1  0  0  0
  7  8  1  0  0  0
  8  9  1  0  0  0
  9 10  1  0  0  0
 10 11  2  0  0  0
 11 12  1  0  0  0
 12 13  1  0  0  0
 13 14  1  0  0  0
 14 15  1  0  0  0
 15 16  1  0  0  0
 16 17  1  0  0  0
 17 18  1  0  0  0
 18 19  1  0  0  0
M  CHG 1  28  -1
M  END
> <minimizedAffinity>
-8.23239

> <CNNscore>
0.8296380043

> <CNNaffinity>
6.5840911865

> <CNN_VS>
5.4624123573

> <CNNaffinity_variance>
0.4063361585

$$$$
/media/chris/experiments/cd1a-new-docking/inputs/ligands/4x6c_ligand.pdb


 37 36  0  0  0  0  0  0  0  0999 V2000
  -41.0324   62.0288   65.9510 O   0  0  0  0  0  0  0  0  0  0  0  0
  -40.3577   61.0587   65.7880 C   0  0  0  0  0  0  0  0  0  0  0  0
  -40.8612   59.7577   65.2541 C   0  0  0  0  0  0  0  0  0  0  0  0
  -42.3197   59.8135   64.8407 C   0  0  0  0  0  0  0  0  0  0  0  0
  -43.2337   59.0891   65.8053 C   0  0  0  0  0  0  0  0  0  0  0  0
  -43.1290   57.5830   65.7558 C   0  0  0  0  0  0  0  0  0  0  0  0
  -44.2776   56.9144   65.0444 C   0  0  0  0  0  0  0  0  0  0  0  0
  -45.6030   57.2031   65.6967 C   0  0  0  0  0  0  0  0  0  0  0  0
  -46.5850   57.9598   64.8523 C   0  0  0  0  0  0  0  0  0  0  0  0
  -47.9770   57.5310   65.0516 C   0  0  0  0  0  0  0  0  0  0  0  0
  -49.0656   58.0480   64.5259 C   0  0  0  0  0  0  0  0  0  0  0  0
  -49.1709   59.1847   63.5766 C   0  0  0  0  0  0  0  0  0  0  0  0
  -49.4200   58.8072   62.1306 C   0  0  0  0  0  0  0  0  0  0  0  0
  -50.7766   58.1946   61.9152 C   0  0  0  0  0  0  0  0  0  0  0  0
  -50.8566   57.2341   60.7564 C   0  0  0  0  0  0  0  0  0  0  0  0
  -49.4963   56.8917   60.1897 C   0  0  0  0  0  0  0  0  0  0  0  0
  -49.3320   57.1748   58.7225 C   0  0  0  0  0  0  0  0  0  0  0  0
  -48.1175   56.5657   58.1453 C   0  0  0  0  0  0  0  0  0  0  0  0
  -47.4891   55.5805   59.0231 C   0  0  0  0  0  0  0  0  0  0  0  0
  -39.0563   61.0043   66.0709 O   0  0  0  0  0  0  0  0  0  0  0  0
  -38.1643   60.5545   65.0268 C   0  0  0  0  0  0  0  0  0  0  0  0
  -38.2224   61.5827   63.9205 C   0  0  0  0  0  0  0  0  0  0  0  0
  -37.1676   62.5289   64.0943 O   0  0  0  0  0  0  0  0  0  0  0  0
  -36.3124   62.0790   64.0101 H   0  0  0  0  0  0  0  0  0  0  0  0
  -38.1327   61.0219   62.5219 C   0  0  0  0  0  0  0  0  0  0  0  0
  -37.1546   59.9627   62.5141 O   0  0  0  0  0  0  0  0  0  0  0  0
  -37.4168   58.6565   61.6454 P   0  0  0  0  0  0  0  0  0  0  0  0
  -38.1719   57.7149   62.4966 O   0  0  0  0  0  0  0  0  0  0  0  0
  -38.0071   59.1038   60.3685 O   0  0  0  0  0  0  0  0  0  0  0  0
  -38.8695   59.5145   60.5372 H   0  0  0  0  0  0  0  0  0  0  0  0
  -36.0143   57.9963   61.3080 O   0  0  0  0  0  0  0  0  0  0  0  0
  -35.2647   57.3314   62.3519 C   0  0  0  0  0  0  0  0  0  0  0  0
  -34.1386   58.2720   62.7162 C   0  0  0  0  0  0  0  0  0  0  0  0
  -34.0780   58.7141   64.1649 N   0  0  0  0  0  0  0  0  0  0  0  0
  -32.8007   58.2789   64.8082 C   0  0  0  0  0  0  0  0  0  0  0  0
  -35.2213   58.1144   64.9190 C   0  0  0  0  0  0  0  0  0  0  0  0
  -34.1665   60.2061   64.2379 C   0  0  0  0  0  0  0  0  0  0  0  0
 34 33  1  0  0  0
 34 35  1  0  0  0
 34 36  1  0  0  0
 34 37  1  0  0  0
 22 23  1  0  0  0
 22 25  1  0  0  0
 22 21  1  0  0  0
 23 24  1  0  0  0
 27 26  1  0  0  0
 27 28  2  0  0  0
 27 31  1  0  0  0
 27 29  1  0  0  0
 25 26  1  0  0  0
 32 33  1  0  0  0
 32 31  1  0  0  0
 29 30  1  0  0  0
 20 21  1  0  0  0
 20  2  1  0  0  0
  1  2  2  0  0  0
  2  3  1  0  0  0
  3  4  1  0  0  0
  4  5  1  0  0  0
  5  6  1  0  0  0
  6  7  1  0  0  0
  7  8  1  0  0  0
  8  9  1  0  0  0
  9 10  1  0  0  0
 10 11  2  0  0  0
 11 12  1  0  0  0
 12 13  1  0  0  0
 13 14  1  0  0  0
 14 15  1  0  0  0
 15 16  1  0  0  0
 16 17  1  0  0  0
 17 18  1  0  0  0
 18 19  1  0  0  0
M  CHG 1  28  -1
M  END
> <minimizedAffinity>
-7.92422

> <CNNscore>
0.7947551012

> <CNNaffinity>
6.8053297997

> <CNN_VS>
5.4085707664

> <CNNaffinity_variance>
0.6611458063

$$$$
/media/chris/experiments/cd1a-new-docking/inputs/ligands/4x6c_ligand.pdb


 37 36  0  0  0  0  0  0  0  0999 V2000
  -42.0314   57.8982   66.0136 O   0  0  0  0  0  0  0  0  0  0  0  0
  -42.8714   58.6400   65.6048 C   0  0  0  0  0  0  0  0  0  0  0  0
  -44.1624   58.2022   64.9940 C   0  0  0  0  0  0  0  0  0  0  0  0
  -44.7400   56.9656   65.6563 C   0  0  0  0  0  0  0  0  0  0  0  0
  -46.1249   57.1930   66.2225 C   0  0  0  0  0  0  0  0  0  0  0  0
  -46.4060   58.6183   66.6365 C   0  0  0  0  0  0  0  0  0  0  0  0
  -47.6730   59.1858   66.0494 C   0  0  0  0  0  0  0  0  0  0  0  0
  -48.2758   58.2847   65.0053 C   0  0  0  0  0  0  0  0  0  0  0  0
  -49.7723   58.1836   65.0282 C   0  0  0  0  0  0  0  0  0  0  0  0
  -50.4420   59.4832   65.1812 C   0  0  0  0  0  0  0  0  0  0  0  0
  -51.0057   60.2175   64.2476 C   0  0  0  0  0  0  0  0  0  0  0  0
  -51.1326   59.9148   62.7996 C   0  0  0  0  0  0  0  0  0  0  0  0
  -49.9306   60.2726   61.9496 C   0  0  0  0  0  0  0  0  0  0  0  0
  -49.6543   59.2558   60.8763 C   0  0  0  0  0  0  0  0  0  0  0  0
  -50.1238   57.8597   61.1959 C   0  0  0  0  0  0  0  0  0  0  0  0
  -50.0841   56.9431   59.9929 C   0  0  0  0  0  0  0  0  0  0  0  0
  -49.0853   55.8233   60.0827 C   0  0  0  0  0  0  0  0  0  0  0  0
  -47.9837   55.9473   59.1080 C   0  0  0  0  0  0  0  0  0  0  0  0
  -48.2298   56.9559   58.0792 C   0  0  0  0  0  0  0  0  0  0  0  0
  -42.7648   59.9683   65.6316 O   0  0  0  0  0  0  0  0  0  0  0  0
  -41.5693   60.5306   66.2169 C   0  0  0  0  0  0  0  0  0  0  0  0
  -41.0590   61.5824   65.2591 C   0  0  0  0  0  0  0  0  0  0  0  0
  -39.9269   62.2378   65.8309 O   0  0  0  0  0  0  0  0  0  0  0  0
  -39.2078   61.5976   65.9485 H   0  0  0  0  0  0  0  0  0  0  0  0
  -40.6717   61.0688   63.8935 C   0  0  0  0  0  0  0  0  0  0  0  0
  -39.3786   61.6064   63.5507 O   0  0  0  0  0  0  0  0  0  0  0  0
  -38.3056   60.6774   62.8332 P   0  0  0  0  0  0  0  0  0  0  0  0
  -38.6952   59.2784   63.1026 O   0  0  0  0  0  0  0  0  0  0  0  0
  -38.2066   61.1399   61.4349 O   0  0  0  0  0  0  0  0  0  0  0  0
  -39.0550   60.9981   60.9866 H   0  0  0  0  0  0  0  0  0  0  0  0
  -36.8952   60.9334   63.5129 O   0  0  0  0  0  0  0  0  0  0  0  0
  -36.3773   62.2814   63.6048 C   0  0  0  0  0  0  0  0  0  0  0  0
  -36.0995   62.5191   65.0717 C   0  0  0  0  0  0  0  0  0  0  0  0
  -34.6537   62.3906   65.5085 N   0  0  0  0  0  0  0  0  0  0  0  0
  -34.4046   63.1434   66.7757 C   0  0  0  0  0  0  0  0  0  0  0  0
  -33.7589   62.9386   64.4435 C   0  0  0  0  0  0  0  0  0  0  0  0
  -34.3250   60.9485   65.7360 C   0  0  0  0  0  0  0  0  0  0  0  0
 34 33  1  0  0  0
 34 35  1  0  0  0
 34 36  1  0  0  0
 34 37  1  0  0  0
 22 23  1  0  0  0
 22 25  1  0  0  0
 22 21  1  0  0  0
 23 24  1  0  0  0
 27 26  1  0  0  0
 27 28  2  0  0  0
 27 31  1  0  0  0
 27 29  1  0  0  0
 25 26  1  0  0  0
 32 33  1  0  0  0
 32 31  1  0  0  0
 29 30  1  0  0  0
 20 21  1  0  0  0
 20  2  1  0  0  0
  1  2  2  0  0  0
  2  3  1  0  0  0
  3  4  1  0  0  0
  4  5  1  0  0  0
  5  6  1  0  0  0
  6  7  1  0  0  0
  7  8  1  0  0  0
  8  9  1  0  0  0
  9 10  1  0  0  0
 10 11  2  0  0  0
 11 12  1  0  0  0
 12 13  1  0  0  0
 13 14  1  0  0  0
 14 15  1  0  0  0
 15 16  1  0  0  0
 16 17  1  0  0  0
 17 18  1  0  0  0
 18 19  1  0  0  0
M  CHG 1  28  -1
M  END
> <minimizedAffinity>
-8.18964

> <CNNscore>
0.7506262064

> <CNNaffinity>
6.6103987694

> <CNN_VS>
4.9619383812

> <CNNaffinity_variance>
0.3436011970

$$$$
/media/chris/experiments/cd1a-new-docking/inputs/ligands/4x6c_ligand.pdb


 37 36  0  0  0  0  0  0  0  0999 V2000
  -39.5380   58.3678   64.4891 O   0  0  0  0  0  0  0  0  0  0  0  0
  -40.2114   59.1792   65.0469 C   0  0  0  0  0  0  0  0  0  0  0  0
  -41.7039   59.1492   65.0985 C   0  0  0  0  0  0  0  0  0  0  0  0
  -42.2417   58.0667   66.0153 C   0  0  0  0  0  0  0  0  0  0  0  0
  -43.5167   57.4364   65.4981 C   0  0  0  0  0  0  0  0  0  0  0  0
  -44.4410   58.3916   64.7804 C   0  0  0  0  0  0  0  0  0  0  0  0
  -45.8802   57.9442   64.7538 C   0  0  0  0  0  0  0  0  0  0  0  0
  -46.7692   58.8197   65.5955 C   0  0  0  0  0  0  0  0  0  0  0  0
  -47.8978   59.4840   64.8640 C   0  0  0  0  0  0  0  0  0  0  0  0
  -49.1531   58.7204   64.9121 C   0  0  0  0  0  0  0  0  0  0  0  0
  -49.8057   58.1732   63.9104 C   0  0  0  0  0  0  0  0  0  0  0  0
  -49.4333   58.1646   62.4733 C   0  0  0  0  0  0  0  0  0  0  0  0
  -50.5684   57.8975   61.5059 C   0  0  0  0  0  0  0  0  0  0  0  0
  -50.0928   57.6937   60.0937 C   0  0  0  0  0  0  0  0  0  0  0  0
  -49.4469   56.3570   59.8337 C   0  0  0  0  0  0  0  0  0  0  0  0
  -47.9559   56.4667   59.6020 C   0  0  0  0  0  0  0  0  0  0  0  0
  -47.4335   55.6592   58.4466 C   0  0  0  0  0  0  0  0  0  0  0  0
  -46.9220   56.4914   57.3398 C   0  0  0  0  0  0  0  0  0  0  0  0
  -47.7268   56.3978   56.1234 C   0  0  0  0  0  0  0  0  0  0  0  0
  -39.7173   60.2331   65.6963 O   0  0  0  0  0  0  0  0  0  0  0  0
  -39.2832   61.3616   64.9051 C   0  0  0  0  0  0  0  0  0  0  0  0
  -37.8156   61.1565   64.6078 C   0  0  0  0  0  0  0  0  0  0  0  0
  -37.6631   60.6741   63.2728 O   0  0  0  0  0  0  0  0  0  0  0  0
  -37.9815   61.3446   62.6484 H   0  0  0  0  0  0  0  0  0  0  0  0
  -36.9530   62.3844   64.7713 C   0  0  0  0  0  0  0  0  0  0  0  0
  -36.6429   62.5444   66.1702 O   0  0  0  0  0  0  0  0  0  0  0  0
  -35.1902   63.0254   66.6037 P   0  0  0  0  0  0  0  0  0  0  0  0
  -35.0886   64.4584   66.2609 O   0  0  0  0  0  0  0  0  0  0  0  0
  -35.0021   62.6063   68.0066 O   0  0  0  0  0  0  0  0  0  0  0  0
  -35.6392   63.0714   68.5712 H   0  0  0  0  0  0  0  0  0  0  0  0
  -34.1261   62.2356   65.7315 O   0  0  0  0  0  0  0  0  0  0  0  0
  -34.1136   60.7889   65.7520 C   0  0  0  0  0  0  0  0  0  0  0  0
  -33.9637   60.3557   64.3114 C   0  0  0  0  0  0  0  0  0  0  0  0
  -33.4240   58.9573   64.0857 N   0  0  0  0  0  0  0  0  0  0  0  0
  -32.0494   58.9983   63.4995 C   0  0  0  0  0  0  0  0  0  0  0  0
  -34.3226   58.2201   63.1454 C   0  0  0  0  0  0  0  0  0  0  0  0
  -33.3665   58.2256   65.3898 C   0  0  0  0  0  0  0  0  0  0  0  0
 34 33  1  0  0  0
 34 35  1  0  0  0
 34 36  1  0  0  0
 34 37  1  0  0  0
 22 23  1  0  0  0
 22 25  1  0  0  0
 22 21  1  0  0  0
 23 24  1  0  0  0
 27 26  1  0  0  0
 27 28  2  0  0  0
 27 31  1  0  0  0
 27 29  1  0  0  0
 25 26  1  0  0  0
 32 33  1  0  0  0
 32 31  1  0  0  0
 29 30  1  0  0  0
 20 21  1  0  0  0
 20  2  1  0  0  0
  1  2  2  0  0  0
  2  3  1  0  0  0
  3  4  1  0  0  0
  4  5  1  0  0  0
  5  6  1  0  0  0
  6  7  1  0  0  0
  7  8  1  0  0  0
  8  9  1  0  0  0
  9 10  1  0  0  0
 10 11  2  0  0  0
 11 12  1  0  0  0
 12 13  1  0  0  0
 13 14  1  0  0  0
 14 15  1  0  0  0
 15 16  1  0  0  0
 16 17  1  0  0  0
 17 18  1  0  0  0
 18 19  1  0  0  0
M  CHG 1  28  -1
M  END
> <minimizedAffinity>
-7.89002

> <CNNscore>
0.7033210397

> <CNNaffinity>
6.4025740623

> <CNN_VS>
4.5030651093

> <CNNaffinity_variance>
0.3616282642

$$$$
/media/chris/experiments/cd1a-new-docking/inputs/ligands/4x6c_ligand.pdb


 37 36  0  0  0  0  0  0  0  0999 V2000
  -40.6640   59.3961   65.2733 O   0  0  0  0  0  0  0  0  0  0  0  0
  -41.6533   59.8725   64.8073 C   0  0  0  0  0  0  0  0  0  0  0  0
  -42.9043   60.1458   65.5763 C   0  0  0  0  0  0  0  0  0  0  0  0
  -44.1331   59.5149   64.9492 C   0  0  0  0  0  0  0  0  0  0  0  0
  -44.9215   58.6659   65.9229 C   0  0  0  0  0  0  0  0  0  0  0  0
  -46.2908   59.2077   66.2598 C   0  0  0  0  0  0  0  0  0  0  0  0
  -47.2004   59.3526   65.0666 C   0  0  0  0  0  0  0  0  0  0  0  0
  -47.7905   60.7331   64.9590 C   0  0  0  0  0  0  0  0  0  0  0  0
  -48.7198   60.9477   63.8012 C   0  0  0  0  0  0  0  0  0  0  0  0
  -50.1397   60.8357   64.1649 C   0  0  0  0  0  0  0  0  0  0  0  0
  -51.0829   60.1622   63.5441 C   0  0  0  0  0  0  0  0  0  0  0  0
  -50.9550   59.3213   62.3272 C   0  0  0  0  0  0  0  0  0  0  0  0
  -50.2987   57.9713   62.5321 C   0  0  0  0  0  0  0  0  0  0  0  0
  -49.4743   57.5403   61.3502 C   0  0  0  0  0  0  0  0  0  0  0  0
  -50.2532   57.3559   60.0731 C   0  0  0  0  0  0  0  0  0  0  0  0
  -49.3622   57.0677   58.8849 C   0  0  0  0  0  0  0  0  0  0  0  0
  -48.0049   56.5207   59.2290 C   0  0  0  0  0  0  0  0  0  0  0  0
  -47.2669   56.0153   58.0547 C   0  0  0  0  0  0  0  0  0  0  0  0
  -46.5524   57.0606   57.3245 C   0  0  0  0  0  0  0  0  0  0  0  0
  -41.7771   60.2192   63.5262 O   0  0  0  0  0  0  0  0  0  0  0  0
  -40.9322   61.2850   63.0382 C   0  0  0  0  0  0  0  0  0  0  0  0
  -39.8323   60.6420   62.2252 C   0  0  0  0  0  0  0  0  0  0  0  0
  -39.9965   60.9829   60.8486 O   0  0  0  0  0  0  0  0  0  0  0  0
  -39.8983   61.9416   60.7389 H   0  0  0  0  0  0  0  0  0  0  0  0
  -38.4296   61.0119   62.6427 C   0  0  0  0  0  0  0  0  0  0  0  0
  -38.4929   61.6900   63.9134 O   0  0  0  0  0  0  0  0  0  0  0  0
  -37.3897   61.3922   65.0196 P   0  0  0  0  0  0  0  0  0  0  0  0
  -37.3643   62.5550   65.9298 O   0  0  0  0  0  0  0  0  0  0  0  0
  -37.6859   60.0546   65.5695 O   0  0  0  0  0  0  0  0  0  0  0  0
  -38.5454   60.0728   66.0186 H   0  0  0  0  0  0  0  0  0  0  0  0
  -35.9787   61.3015   64.3001 O   0  0  0  0  0  0  0  0  0  0  0  0
  -35.0696   60.2273   64.6366 C   0  0  0  0  0  0  0  0  0  0  0  0
  -35.2115   59.2038   63.5331 C   0  0  0  0  0  0  0  0  0  0  0  0
  -34.5656   57.8555   63.7836 N   0  0  0  0  0  0  0  0  0  0  0  0
  -33.3276   57.9962   64.6095 C   0  0  0  0  0  0  0  0  0  0  0  0
  -34.1998   57.2258   62.4779 C   0  0  0  0  0  0  0  0  0  0  0  0
  -35.5263   56.9664   64.5088 C   0  0  0  0  0  0  0  0  0  0  0  0
 34 33  1  0  0  0
 34 35  1  0  0  0
 34 36  1  0  0  0
 34 37  1  0  0  0
 22 23  1  0  0  0
 22 25  1  0  0  0
 22 21  1  0  0  0
 23 24  1  0  0  0
 27 26  1  0  0  0
 27 28  2  0  0  0
 27 31  1  0  0  0
 27 29  1  0  0  0
 25 26  1  0  0  0
 32 33  1  0  0  0
 32 31  1  0  0  0
 29 30  1  0  0  0
 20 21  1  0  0  0
 20  2  1  0  0  0
  1  2  2  0  0  0
  2  3  1  0  0  0
  3  4  1  0  0  0
  4  5  1  0  0  0
  5  6  1  0  0  0
  6  7  1  0  0  0
  7  8  1  0  0  0
  8  9  1  0  0  0
  9 10  1  0  0  0
 10 11  2  0  0  0
 11 12  1  0  0  0
 12 13  1  0  0  0
 13 14  1  0  0  0
 14 15  1  0  0  0
 15 16  1  0  0  0
 16 17  1  0  0  0
 17 18  1  0  0  0
 18 19  1  0  0  0
M  CHG 1  28  -1
M  END
> <minimizedAffinity>
-7.88385

> <CNNscore>
0.6899868250

> <CNNaffinity>
6.5093278885

> <CNN_VS>
4.4913506508

> <CNNaffinity_variance>
0.2595946193

$$$$
/media/chris/experiments/cd1a-new-docking/inputs/ligands/4x6c_ligand.pdb


 37 36  0  0  0  0  0  0  0  0999 V2000
  -41.6123   60.3221   66.7012 O   0  0  0  0  0  0  0  0  0  0  0  0
  -41.6381   60.1125   65.5272 C   0  0  0  0  0  0  0  0  0  0  0  0
  -42.8783   60.1117   64.6948 C   0  0  0  0  0  0  0  0  0  0  0  0
  -44.0403   59.4045   65.3666 C   0  0  0  0  0  0  0  0  0  0  0  0
  -44.4637   58.1461   64.6402 C   0  0  0  0  0  0  0  0  0  0  0  0
  -45.8480   57.6552   64.9929 C   0  0  0  0  0  0  0  0  0  0  0  0
  -46.9381   58.6628   64.7307 C   0  0  0  0  0  0  0  0  0  0  0  0
  -48.0434   58.5909   65.7499 C   0  0  0  0  0  0  0  0  0  0  0  0
  -49.3935   58.2214   65.2108 C   0  0  0  0  0  0  0  0  0  0  0  0
  -50.3889   59.2947   65.3461 C   0  0  0  0  0  0  0  0  0  0  0  0
  -50.6660   60.2533   64.4900 C   0  0  0  0  0  0  0  0  0  0  0  0
  -50.0621   60.4880   63.1542 C   0  0  0  0  0  0  0  0  0  0  0  0
  -50.7045   59.7372   62.0057 C   0  0  0  0  0  0  0  0  0  0  0  0
  -49.8554   58.6004   61.5070 C   0  0  0  0  0  0  0  0  0  0  0  0
  -50.6289   57.3897   61.0515 C   0  0  0  0  0  0  0  0  0  0  0  0
  -49.8273   56.5023   60.1248 C   0  0  0  0  0  0  0  0  0  0  0  0
  -49.1640   57.2168   58.9806 C   0  0  0  0  0  0  0  0  0  0  0  0
  -47.8248   56.6845   58.6608 C   0  0  0  0  0  0  0  0  0  0  0  0
  -47.4611   56.8358   57.2533 C   0  0  0  0  0  0  0  0  0  0  0  0
  -40.5557   59.8408   64.7983 O   0  0  0  0  0  0  0  0  0  0  0  0
  -39.2659   60.0330   65.4209 C   0  0  0  0  0  0  0  0  0  0  0  0
  -38.7908   61.4160   65.0393 C   0  0  0  0  0  0  0  0  0  0  0  0
  -39.4079   62.3828   65.8894 O   0  0  0  0  0  0  0  0  0  0  0  0
  -39.1250   62.2353   66.8055 H   0  0  0  0  0  0  0  0  0  0  0  0
  -37.2959   61.6166   65.0975 C   0  0  0  0  0  0  0  0  0  0  0  0
  -36.9875   62.4398   66.2403 O   0  0  0  0  0  0  0  0  0  0  0  0
  -35.4782   62.8482   66.5310 P   0  0  0  0  0  0  0  0  0  0  0  0
  -35.5080   63.9226   67.5440 O   0  0  0  0  0  0  0  0  0  0  0  0
  -34.7472   61.6004   66.8273 O   0  0  0  0  0  0  0  0  0  0  0  0
  -35.0993   61.2045   67.6397 H   0  0  0  0  0  0  0  0  0  0  0  0
  -34.8616   63.4478   65.1979 O   0  0  0  0  0  0  0  0  0  0  0  0
  -34.7136   64.8802   65.0571 C   0  0  0  0  0  0  0  0  0  0  0  0
  -33.2268   65.1497   65.1076 C   0  0  0  0  0  0  0  0  0  0  0  0
  -32.5098   65.1983   63.7730 N   0  0  0  0  0  0  0  0  0  0  0  0
  -32.0221   63.8428   63.3735 C   0  0  0  0  0  0  0  0  0  0  0  0
  -31.3358   66.1191   63.8692 C   0  0  0  0  0  0  0  0  0  0  0  0
  -33.4459   65.7000   62.7188 C   0  0  0  0  0  0  0  0  0  0  0  0
 34 33  1  0  0  0
 34 35  1  0  0  0
 34 36  1  0  0  0
 34 37  1  0  0  0
 22 23  1  0  0  0
 22 25  1  0  0  0
 22 21  1  0  0  0
 23 24  1  0  0  0
 27 26  1  0  0  0
 27 28  2  0  0  0
 27 31  1  0  0  0
 27 29  1  0  0  0
 25 26  1  0  0  0
 32 33  1  0  0  0
 32 31  1  0  0  0
 29 30  1  0  0  0
 20 21  1  0  0  0
 20  2  1  0  0  0
  1  2  2  0  0  0
  2  3  1  0  0  0
  3  4  1  0  0  0
  4  5  1  0  0  0
  5  6  1  0  0  0
  6  7  1  0  0  0
  7  8  1  0  0  0
  8  9  1  0  0  0
  9 10  1  0  0  0
 10 11  2  0  0  0
 11 12  1  0  0  0
 12 13  1  0  0  0
 13 14  1  0  0  0
 14 15  1  0  0  0
 15 16  1  0  0  0
 16 17  1  0  0  0
 17 18  1  0  0  0
 18 19  1  0  0  0
M  CHG 1  28  -1
M  END
> <minimizedAffinity>
-8.15839

> <CNNscore>
0.6850591898

> <CNNaffinity>
6.2197756767

> <CNN_VS>
4.2609143257

> <CNNaffinity_variance>
0.4396156669

$$$$
/media/chris/experiments/cd1a-new-docking/inputs/ligands/4x6c_ligand.pdb


 37 36  0  0  0  0  0  0  0  0999 V2000
  -41.2796   60.6060   66.2591 O   0  0  0  0  0  0  0  0  0  0  0  0
  -41.5002   60.2817   65.1326 C   0  0  0  0  0  0  0  0  0  0  0  0
  -42.8584   59.9786   64.5898 C   0  0  0  0  0  0  0  0  0  0  0  0
  -43.7641   59.3074   65.6050 C   0  0  0  0  0  0  0  0  0  0  0  0
  -45.2311   59.5903   65.3638 C   0  0  0  0  0  0  0  0  0  0  0  0
  -46.0527   58.3743   65.0059 C   0  0  0  0  0  0  0  0  0  0  0  0
  -47.4778   58.6898   64.6294 C   0  0  0  0  0  0  0  0  0  0  0  0
  -48.4735   57.9216   65.4563 C   0  0  0  0  0  0  0  0  0  0  0  0
  -49.9118   58.1159   65.0771 C   0  0  0  0  0  0  0  0  0  0  0  0
  -50.2444   59.5093   64.7471 C   0  0  0  0  0  0  0  0  0  0  0  0
  -50.6714   59.9888   63.5997 C   0  0  0  0  0  0  0  0  0  0  0  0
  -50.9506   59.2447   62.3457 C   0  0  0  0  0  0  0  0  0  0  0  0
  -49.7411   58.9322   61.4885 C   0  0  0  0  0  0  0  0  0  0  0  0
  -49.3141   57.4934   61.5881 C   0  0  0  0  0  0  0  0  0  0  0  0
  -49.7074   56.6372   60.4118 C   0  0  0  0  0  0  0  0  0  0  0  0
  -48.5746   56.4453   59.4275 C   0  0  0  0  0  0  0  0  0  0  0  0
  -48.8868   56.8547   58.0152 C   0  0  0  0  0  0  0  0  0  0  0  0
  -47.7963   56.5515   57.0674 C   0  0  0  0  0  0  0  0  0  0  0  0
  -46.5447   57.2363   57.3847 C   0  0  0  0  0  0  0  0  0  0  0  0
  -40.5553   60.1378   64.2035 O   0  0  0  0  0  0  0  0  0  0  0  0
  -40.4941   61.1295   63.1543 C   0  0  0  0  0  0  0  0  0  0  0  0
  -39.6033   60.5716   62.0682 C   0  0  0  0  0  0  0  0  0  0  0  0
  -40.0092   61.0953   60.8037 O   0  0  0  0  0  0  0  0  0  0  0  0
  -39.8852   62.0573   60.7972 H   0  0  0  0  0  0  0  0  0  0  0  0
  -38.1299   60.8470   62.2463 C   0  0  0  0  0  0  0  0  0  0  0  0
  -37.5860   59.8667   63.1528 O   0  0  0  0  0  0  0  0  0  0  0  0
  -37.2072   58.4199   62.6118 P   0  0  0  0  0  0  0  0  0  0  0  0
  -38.3456   57.5308   62.9202 O   0  0  0  0  0  0  0  0  0  0  0  0
  -36.7842   58.5860   61.2073 O   0  0  0  0  0  0  0  0  0  0  0  0
  -37.5335   58.9031   60.6793 H   0  0  0  0  0  0  0  0  0  0  0  0
  -35.9463   57.9020   63.4234 O   0  0  0  0  0  0  0  0  0  0  0  0
  -35.2519   58.8005   64.3200 C   0  0  0  0  0  0  0  0  0  0  0  0
  -34.3447   59.6374   63.4469 C   0  0  0  0  0  0  0  0  0  0  0  0
  -32.9202   59.1424   63.2937 N   0  0  0  0  0  0  0  0  0  0  0  0
  -31.9642   60.2841   63.1624 C   0  0  0  0  0  0  0  0  0  0  0  0
  -32.8162   58.2890   62.0705 C   0  0  0  0  0  0  0  0  0  0  0  0
  -32.5385   58.3341   64.4938 C   0  0  0  0  0  0  0  0  0  0  0  0
 34 33  1  0  0  0
 34 35  1  0  0  0
 34 36  1  0  0  0
 34 37  1  0  0  0
 22 23  1  0  0  0
 22 25  1  0  0  0
 22 21  1  0  0  0
 23 24  1  0  0  0
 27 26  1  0  0  0
 27 28  2  0  0  0
 27 31  1  0  0  0
 27 29  1  0  0  0
 25 26  1  0  0  0
 32 33  1  0  0  0
 32 31  1  0  0  0
 29 30  1  0  0  0
 20 21  1  0  0  0
 20  2  1  0  0  0
  1  2  2  0  0  0
  2  3  1  0  0  0
  3  4  1  0  0  0
  4  5  1  0  0  0
  5  6  1  0  0  0
  6  7  1  0  0  0
  7  8  1  0  0  0
  8  9  1  0  0  0
  9 10  1  0  0  0
 10 11  2  0  0  0
 11 12  1  0  0  0
 12 13  1  0  0  0
 13 14  1  0  0  0
 14 15  1  0  0  0
 15 16  1  0  0  0
 16 17  1  0  0  0
 17 18  1  0  0  0
 18 19  1  0  0  0
M  CHG 1  28  -1
M  END
> <minimizedAffinity>
-7.78285

> <CNNscore>
0.6659958959

> <CNNaffinity>
6.4412803650

> <CNN_VS>
4.2898664474

> <CNNaffinity_variance>
0.5657021999

$$$$
/media/chris/experiments/cd1a-new-docking/inputs/ligands/4x6c_ligand.pdb


 37 36  0  0  0  0  0  0  0  0999 V2000
  -42.0900   58.2998   65.7664 O   0  0  0  0  0  0  0  0  0  0  0  0
  -42.6266   59.2745   65.3362 C   0  0  0  0  0  0  0  0  0  0  0  0
  -44.0087   59.2995   64.7703 C   0  0  0  0  0  0  0  0  0  0  0  0
  -45.0050   58.5225   65.6100 C   0  0  0  0  0  0  0  0  0  0  0  0
  -46.0515   57.8141   64.7772 C   0  0  0  0  0  0  0  0  0  0  0  0
  -47.4081   58.4786   64.7788 C   0  0  0  0  0  0  0  0  0  0  0  0
  -48.5362   57.5621   65.1786 C   0  0  0  0  0  0  0  0  0  0  0  0
  -49.8850   58.2136   65.0305 C   0  0  0  0  0  0  0  0  0  0  0  0
  -49.8609   59.6670   64.6602 C   0  0  0  0  0  0  0  0  0  0  0  0
  -50.9370   60.0507   63.7351 C   0  0  0  0  0  0  0  0  0  0  0  0
  -50.9627   59.9228   62.4268 C   0  0  0  0  0  0  0  0  0  0  0  0
  -49.9214   59.3370   61.5455 C   0  0  0  0  0  0  0  0  0  0  0  0
  -50.0152   57.8404   61.3291 C   0  0  0  0  0  0  0  0  0  0  0  0
  -50.4764   57.4812   59.9433 C   0  0  0  0  0  0  0  0  0  0  0  0
  -49.3726   57.0924   58.9935 C   0  0  0  0  0  0  0  0  0  0  0  0
  -48.2564   56.3345   59.6780 C   0  0  0  0  0  0  0  0  0  0  0  0
  -47.3148   55.6190   58.7500 C   0  0  0  0  0  0  0  0  0  0  0  0
  -47.8213   55.5250   57.3667 C   0  0  0  0  0  0  0  0  0  0  0  0
  -46.9531   56.1727   56.3855 C   0  0  0  0  0  0  0  0  0  0  0  0
  -42.0560   60.4784   65.2957 O   0  0  0  0  0  0  0  0  0  0  0  0
  -42.0576   61.1758   64.0301 C   0  0  0  0  0  0  0  0  0  0  0  0
  -40.8015   60.7658   63.2963 C   0  0  0  0  0  0  0  0  0  0  0  0
  -40.8653   61.2295   61.9476 O   0  0  0  0  0  0  0  0  0  0  0  0
  -40.8872   62.1992   61.9397 H   0  0  0  0  0  0  0  0  0  0  0  0
  -39.5137   61.2605   63.9089 C   0  0  0  0  0  0  0  0  0  0  0  0
  -38.5436   60.1950   63.8606 O   0  0  0  0  0  0  0  0  0  0  0  0
  -37.1639   60.4212   63.1026 P   0  0  0  0  0  0  0  0  0  0  0  0
  -36.7916   59.1313   62.4871 O   0  0  0  0  0  0  0  0  0  0  0  0
  -37.3397   61.6058   62.2394 O   0  0  0  0  0  0  0  0  0  0  0  0
  -38.0107   61.4176   61.5648 H   0  0  0  0  0  0  0  0  0  0  0  0
  -36.0600   60.7868   64.1816 O   0  0  0  0  0  0  0  0  0  0  0  0
  -35.8563   62.1685   64.5597 C   0  0  0  0  0  0  0  0  0  0  0  0
  -34.5275   62.5701   63.9609 C   0  0  0  0  0  0  0  0  0  0  0  0
  -34.3292   64.0507   63.7040 N   0  0  0  0  0  0  0  0  0  0  0  0
  -35.0681   64.4891   62.4806 C   0  0  0  0  0  0  0  0  0  0  0  0
  -32.8741   64.3344   63.5107 C   0  0  0  0  0  0  0  0  0  0  0  0
  -34.8340   64.8346   64.8746 C   0  0  0  0  0  0  0  0  0  0  0  0
 34 33  1  0  0  0
 34 35  1  0  0  0
 34 36  1  0  0  0
 34 37  1  0  0  0
 22 23  1  0  0  0
 22 25  1  0  0  0
 22 21  1  0  0  0
 23 24  1  0  0  0
 27 26  1  0  0  0
 27 28  2  0  0  0
 27 31  1  0  0  0
 27 29  1  0  0  0
 25 26  1  0  0  0
 32 33  1  0  0  0
 32 31  1  0  0  0
 29 30  1  0  0  0
 20 21  1  0  0  0
 20  2  1  0  0  0
  1  2  2  0  0  0
  2  3  1  0  0  0
  3  4  1  0  0  0
  4  5  1  0  0  0
  5  6  1  0  0  0
  6  7  1  0  0  0
  7  8  1  0  0  0
  8  9  1  0  0  0
  9 10  1  0  0  0
 10 11  2  0  0  0
 11 12  1  0  0  0
 12 13  1  0  0  0
 13 14  1  0  0  0
 14 15  1  0  0  0
 15 16  1  0  0  0
 16 17  1  0  0  0
 17 18  1  0  0  0
 18 19  1  0  0  0
M  CHG 1  28  -1
M  END
> <minimizedAffinity>
-7.70413

> <CNNscore>
0.6409370303

> <CNNaffinity>
6.4733324051

> <CNN_VS>
4.1489982605

> <CNNaffinity_variance>
0.5071218610

$$$$
