/media/chris/experiments/cd1a-new-docking/inputs/ligands/4x6c_ligand.pdb


 37 36  0  0  0  0  0  0  0  0999 V2000
  -42.3298   57.6013   65.5675 O   0  0  0  0  0  0  0  0  0  0  0  0
  -42.5878   58.7223   65.8832 C   0  0  0  0  0  0  0  0  0  0  0  0
  -43.7592   59.4967   65.3738 C   0  0  0  0  0  0  0  0  0  0  0  0
  -45.0756   59.0388   65.9728 C   0  0  0  0  0  0  0  0  0  0  0  0
  -45.9933   58.3950   64.9560 C   0  0  0  0  0  0  0  0  0  0  0  0
  -47.4367   58.8303   65.0511 C   0  0  0  0  0  0  0  0  0  0  0  0
  -48.4250   57.7483   64.6983 C   0  0  0  0  0  0  0  0  0  0  0  0
  -49.8364   58.1167   65.0696 C   0  0  0  0  0  0  0  0  0  0  0  0
  -50.1434   59.5849   65.0558 C   0  0  0  0  0  0  0  0  0  0  0  0
  -51.1370   59.9630   64.0404 C   0  0  0  0  0  0  0  0  0  0  0  0
  -50.9408   60.1814   62.7588 C   0  0  0  0  0  0  0  0  0  0  0  0
  -49.6691   60.0807   61.9991 C   0  0  0  0  0  0  0  0  0  0  0  0
  -49.6872   59.1322   60.8178 C   0  0  0  0  0  0  0  0  0  0  0  0
  -50.3426   57.8170   61.1384 C   0  0  0  0  0  0  0  0  0  0  0  0
  -49.9205   56.6714   60.2546 C   0  0  0  0  0  0  0  0  0  0  0  0
  -49.3943   57.1343   58.9139 C   0  0  0  0  0  0  0  0  0  0  0  0
  -47.9911   56.6967   58.5988 C   0  0  0  0  0  0  0  0  0  0  0  0
  -47.6768   56.7453   57.1573 C   0  0  0  0  0  0  0  0  0  0  0  0
  -47.2746   55.4523   56.6072 C   0  0  0  0  0  0  0  0  0  0  0  0
  -41.8543   59.4412   66.7329 O   0  0  0  0  0  0  0  0  0  0  0  0
  -41.9259   60.8804   66.6245 C   0  0  0  0  0  0  0  0  0  0  0  0
  -40.7790   61.3161   65.7416 C   0  0  0  0  0  0  0  0  0  0  0  0
  -40.4948   62.6953   65.9765 O   0  0  0  0  0  0  0  0  0  0  0  0
  -40.1996   62.8130   66.8929 H   0  0  0  0  0  0  0  0  0  0  0  0
  -39.5024   60.5304   65.9187 C   0  0  0  0  0  0  0  0  0  0  0  0
  -38.7401   60.6124   64.6976 O   0  0  0  0  0  0  0  0  0  0  0  0
  -37.3815   61.4388   64.6727 P   0  0  0  0  0  0  0  0  0  0  0  0
  -37.2851   62.0730   63.3425 O   0  0  0  0  0  0  0  0  0  0  0  0
  -37.3772   62.2908   65.8780 O   0  0  0  0  0  0  0  0  0  0  0  0
  -38.1039   62.9312   65.8238 H   0  0  0  0  0  0  0  0  0  0  0  0
  -36.1770   60.4162   64.8169 O   0  0  0  0  0  0  0  0  0  0  0  0
  -36.4058   59.0036   64.6023 C   0  0  0  0  0  0  0  0  0  0  0  0
  -36.1945   58.7699   63.1236 C   0  0  0  0  0  0  0  0  0  0  0  0
  -37.3472   58.1301   62.3757 N   0  0  0  0  0  0  0  0  0  0  0  0
  -36.8782   56.9788   61.5454 C   0  0  0  0  0  0  0  0  0  0  0  0
  -37.9820   59.1410   61.4755 C   0  0  0  0  0  0  0  0  0  0  0  0
  -38.3645   57.6319   63.3537 C   0  0  0  0  0  0  0  0  0  0  0  0
 34 33  1  0  0  0
 34 35  1  0  0  0
 34 36  1  0  0  0
 34 37  1  0  0  0
 22 23  1  0  0  0
 22 25  1  0  0  0
 22 21  1  0  0  0
 23 24  1  0  0  0
 27 26  1  0  0  0
 27 28  2  0  0  0
 27 31  1  0  0  0
 27 29  1  0  0  0
 25 26  1  0  0  0
 32 33  1  0  0  0
 32 31  1  0  0  0
 29 30  1  0  0  0
 20 21  1  0  0  0
 20  2  1  0  0  0
  1  2  2  0  0  0
  2  3  1  0  0  0
  3  4  1  0  0  0
  4  5  1  0  0  0
  5  6  1  0  0  0
  6  7  1  0  0  0
  7  8  1  0  0  0
  8  9  1  0  0  0
  9 10  1  0  0  0
 10 11  2  0  0  0
 11 12  1  0  0  0
 12 13  1  0  0  0
 13 14  1  0  0  0
 14 15  1  0  0  0
 15 16  1  0  0  0
 16 17  1  0  0  0
 17 18  1  0  0  0
 18 19  1  0  0  0
M  CHG 1  28  -1
M  END
> <minimizedAffinity>
-8.38506

> <CNNscore>
0.8800549507

> <CNNaffinity>
7.1814069748

> <CNN_VS>
6.3200325966

> <CNNaffinity_variance>
0.3636146188

$$$$
/media/chris/experiments/cd1a-new-docking/inputs/ligands/4x6c_ligand.pdb


 37 36  0  0  0  0  0  0  0  0999 V2000
  -41.8793   57.9186   65.6421 O   0  0  0  0  0  0  0  0  0  0  0  0
  -42.6961   58.7719   65.4755 C   0  0  0  0  0  0  0  0  0  0  0  0
  -44.0267   58.5558   64.8322 C   0  0  0  0  0  0  0  0  0  0  0  0
  -44.6944   57.2674   65.2745 C   0  0  0  0  0  0  0  0  0  0  0  0
  -45.9336   57.5029   66.1108 C   0  0  0  0  0  0  0  0  0  0  0  0
  -46.2965   58.9574   66.2965 C   0  0  0  0  0  0  0  0  0  0  0  0
  -47.6756   59.3105   65.8008 C   0  0  0  0  0  0  0  0  0  0  0  0
  -48.3313   58.1710   65.0679 C   0  0  0  0  0  0  0  0  0  0  0  0
  -49.8307   58.1575   65.1080 C   0  0  0  0  0  0  0  0  0  0  0  0
  -50.4234   59.4996   65.2005 C   0  0  0  0  0  0  0  0  0  0  0  0
  -50.9364   60.2257   64.2317 C   0  0  0  0  0  0  0  0  0  0  0  0
  -51.0712   59.8699   62.7966 C   0  0  0  0  0  0  0  0  0  0  0  0
  -49.8034   59.9798   61.9745 C   0  0  0  0  0  0  0  0  0  0  0  0
  -49.7983   59.0562   60.7874 C   0  0  0  0  0  0  0  0  0  0  0  0
  -50.6585   57.8282   60.9416 C   0  0  0  0  0  0  0  0  0  0  0  0
  -50.0005   56.5838   60.3874 C   0  0  0  0  0  0  0  0  0  0  0  0
  -48.5042   56.6601   60.2636 C   0  0  0  0  0  0  0  0  0  0  0  0
  -47.9940   56.0732   59.0089 C   0  0  0  0  0  0  0  0  0  0  0  0
  -48.4545   56.7734   57.8115 C   0  0  0  0  0  0  0  0  0  0  0  0
  -42.5247   60.0435   65.8370 O   0  0  0  0  0  0  0  0  0  0  0  0
  -41.3494   60.3639   66.6144 C   0  0  0  0  0  0  0  0  0  0  0  0
  -40.3998   61.1016   65.6987 C   0  0  0  0  0  0  0  0  0  0  0  0
  -40.5229   62.5070   65.9175 O   0  0  0  0  0  0  0  0  0  0  0  0
  -40.2532   62.7178   66.8250 H   0  0  0  0  0  0  0  0  0  0  0  0
  -38.9461   60.7227   65.8467 C   0  0  0  0  0  0  0  0  0  0  0  0
  -38.1371   61.8694   65.5158 O   0  0  0  0  0  0  0  0  0  0  0  0
  -36.5551   61.7815   65.6524 P   0  0  0  0  0  0  0  0  0  0  0  0
  -35.9807   62.5930   64.5603 O   0  0  0  0  0  0  0  0  0  0  0  0
  -36.2272   62.1220   67.0507 O   0  0  0  0  0  0  0  0  0  0  0  0
  -36.4800   63.0417   67.2274 H   0  0  0  0  0  0  0  0  0  0  0  0
  -36.1212   60.2728   65.4229 O   0  0  0  0  0  0  0  0  0  0  0  0
  -35.5150   59.8838   64.1679 C   0  0  0  0  0  0  0  0  0  0  0  0
  -36.1009   58.5326   63.8263 C   0  0  0  0  0  0  0  0  0  0  0  0
  -36.9749   58.4755   62.5892 N   0  0  0  0  0  0  0  0  0  0  0  0
  -37.6162   59.7990   62.3207 C   0  0  0  0  0  0  0  0  0  0  0  0
  -38.0497   57.4544   62.7829 C   0  0  0  0  0  0  0  0  0  0  0  0
  -36.1426   58.0976   61.4043 C   0  0  0  0  0  0  0  0  0  0  0  0
 34 33  1  0  0  0
 34 35  1  0  0  0
 34 36  1  0  0  0
 34 37  1  0  0  0
 22 23  1  0  0  0
 22 25  1  0  0  0
 22 21  1  0  0  0
 23 24  1  0  0  0
 27 26  1  0  0  0
 27 28  2  0  0  0
 27 31  1  0  0  0
 27 29  1  0  0  0
 25 26  1  0  0  0
 32 33  1  0  0  0
 32 31  1  0  0  0
 29 30  1  0  0  0
 20 21  1  0  0  0
 20  2  1  0  0  0
  1  2  2  0  0  0
  2  3  1  0  0  0
  3  4  1  0  0  0
  4  5  1  0  0  0
  5  6  1  0  0  0
  6  7  1  0  0  0
  7  8  1  0  0  0
  8  9  1  0  0  0
  9 10  1  0  0  0
 10 11  2  0  0  0
 11 12  1  0  0  0
 12 13  1  0  0  0
 13 14  1  0  0  0
 14 15  1  0  0  0
 15 16  1  0  0  0
 16 17  1  0  0  0
 17 18  1  0  0  0
 18 19  1  0  0  0
M  CHG 1  28  -1
M  END
> <minimizedAffinity>
-8.08020

> <CNNscore>
0.8365451694

> <CNNaffinity>
6.9751882553

> <CNN_VS>
5.8350601196

> <CNNaffinity_variance>
0.2517815232

$$$$
/media/chris/experiments/cd1a-new-docking/inputs/ligands/4x6c_ligand.pdb


 37 36  0  0  0  0  0  0  0  0999 V2000
  -42.2178   57.8984   65.5905 O   0  0  0  0  0  0  0  0  0  0  0  0
  -43.0515   58.7467   65.4993 C   0  0  0  0  0  0  0  0  0  0  0  0
  -44.4732   58.4982   65.1143 C   0  0  0  0  0  0  0  0  0  0  0  0
  -45.3447   59.7331   65.2437 C   0  0  0  0  0  0  0  0  0  0  0  0
  -46.6098   59.4811   66.0352 C   0  0  0  0  0  0  0  0  0  0  0  0
  -47.6483   60.5720   65.9199 C   0  0  0  0  0  0  0  0  0  0  0  0
  -48.2363   60.7115   64.5390 C   0  0  0  0  0  0  0  0  0  0  0  0
  -49.6332   60.1578   64.4513 C   0  0  0  0  0  0  0  0  0  0  0  0
  -49.7307   58.6618   64.4000 C   0  0  0  0  0  0  0  0  0  0  0  0
  -48.8783   58.0573   63.3661 C   0  0  0  0  0  0  0  0  0  0  0  0
  -49.2242   57.6669   62.1592 C   0  0  0  0  0  0  0  0  0  0  0  0
  -50.5605   57.7558   61.5182 C   0  0  0  0  0  0  0  0  0  0  0  0
  -50.5903   57.4788   60.0290 C   0  0  0  0  0  0  0  0  0  0  0  0
  -49.2186   57.2675   59.4494 C   0  0  0  0  0  0  0  0  0  0  0  0
  -48.7389   55.8388   59.4721 C   0  0  0  0  0  0  0  0  0  0  0  0
  -47.2893   55.7054   59.0606 C   0  0  0  0  0  0  0  0  0  0  0  0
  -46.7621   56.8367   58.2225 C   0  0  0  0  0  0  0  0  0  0  0  0
  -46.9207   56.6091   56.7727 C   0  0  0  0  0  0  0  0  0  0  0  0
  -47.3249   55.2444   56.4402 C   0  0  0  0  0  0  0  0  0  0  0  0
  -42.8208   60.0405   65.7226 O   0  0  0  0  0  0  0  0  0  0  0  0
  -41.4774   60.4254   66.0903 C   0  0  0  0  0  0  0  0  0  0  0  0
  -41.0600   61.5320   65.1494 C   0  0  0  0  0  0  0  0  0  0  0  0
  -40.1624   62.4154   65.8219 O   0  0  0  0  0  0  0  0  0  0  0  0
  -39.3544   61.9350   66.0608 H   0  0  0  0  0  0  0  0  0  0  0  0
  -40.4039   61.0699   63.8709 C   0  0  0  0  0  0  0  0  0  0  0  0
  -39.0675   61.6087   63.8202 O   0  0  0  0  0  0  0  0  0  0  0  0
  -37.8652   60.6856   63.3392 P   0  0  0  0  0  0  0  0  0  0  0  0
  -38.1598   59.3147   63.8026 O   0  0  0  0  0  0  0  0  0  0  0  0
  -37.6867   60.9341   61.8951 O   0  0  0  0  0  0  0  0  0  0  0  0
  -38.4797   60.6451   61.4169 H   0  0  0  0  0  0  0  0  0  0  0  0
  -36.5429   61.1756   64.0663 O   0  0  0  0  0  0  0  0  0  0  0  0
  -35.7644   60.2386   64.8472 C   0  0  0  0  0  0  0  0  0  0  0  0
  -34.5801   59.8647   63.9850 C   0  0  0  0  0  0  0  0  0  0  0  0
  -34.1719   58.4051   64.0051 N   0  0  0  0  0  0  0  0  0  0  0  0
  -35.2751   57.5441   64.5311 C   0  0  0  0  0  0  0  0  0  0  0  0
  -32.9726   58.2332   64.8812 C   0  0  0  0  0  0  0  0  0  0  0  0
  -33.8371   57.9590   62.6165 C   0  0  0  0  0  0  0  0  0  0  0  0
 34 33  1  0  0  0
 34 35  1  0  0  0
 34 36  1  0  0  0
 34 37  1  0  0  0
 22 23  1  0  0  0
 22 25  1  0  0  0
 22 21  1  0  0  0
 23 24  1  0  0  0
 27 26  1  0  0  0
 27 28  2  0  0  0
 27 31  1  0  0  0
 27 29  1  0  0  0
 25 26  1  0  0  0
 32 33  1  0  0  0
 32 31  1  0  0  0
 29 30  1  0  0  0
 20 21  1  0  0  0
 20  2  1  0  0  0
  1  2  2  0  0  0
  2  3  1  0  0  0
  3  4  1  0  0  0
  4  5  1  0  0  0
  5  6  1  0  0  0
  6  7  1  0  0  0
  7  8  1  0  0  0
  8  9  1  0  0  0
  9 10  1  0  0  0
 10 11  2  0  0  0
 11 12  1  0  0  0
 12 13  1  0  0  0
 13 14  1  0  0  0
 14 15  1  0  0  0
 15 16  1  0  0  0
 16 17  1  0  0  0
 17 18  1  0  0  0
 18 19  1  0  0  0
M  CHG 1  28  -1
M  END
> <minimizedAffinity>
-7.99679

> <CNNscore>
0.7731428742

> <CNNaffinity>
6.6523756981

> <CNN_VS>
5.1432366371

> <CNNaffinity_variance>
0.3601386845

$$$$
/media/chris/experiments/cd1a-new-docking/inputs/ligands/4x6c_ligand.pdb


 37 36  0  0  0  0  0  0  0  0999 V2000
  -42.3369   57.7658   65.5362 O   0  0  0  0  0  0  0  0  0  0  0  0
  -43.0042   58.7407   65.3708 C   0  0  0  0  0  0  0  0  0  0  0  0
  -44.4323   58.7245   64.9335 C   0  0  0  0  0  0  0  0  0  0  0  0
  -45.3592   59.4140   65.9169 C   0  0  0  0  0  0  0  0  0  0  0  0
  -46.6407   59.9014   65.2762 C   0  0  0  0  0  0  0  0  0  0  0  0
  -47.3669   58.8602   64.4575 C   0  0  0  0  0  0  0  0  0  0  0  0
  -48.2901   57.9837   65.2648 C   0  0  0  0  0  0  0  0  0  0  0  0
  -49.7404   58.2336   64.9493 C   0  0  0  0  0  0  0  0  0  0  0  0
  -50.1548   59.6751   64.9240 C   0  0  0  0  0  0  0  0  0  0  0  0
  -51.1757   59.9704   63.9083 C   0  0  0  0  0  0  0  0  0  0  0  0
  -50.9989   60.1916   62.6244 C   0  0  0  0  0  0  0  0  0  0  0  0
  -49.7250   60.1783   61.8620 C   0  0  0  0  0  0  0  0  0  0  0  0
  -49.6108   59.1043   60.7996 C   0  0  0  0  0  0  0  0  0  0  0  0
  -49.5721   57.7164   61.3778 C   0  0  0  0  0  0  0  0  0  0  0  0
  -49.4119   56.6151   60.3614 C   0  0  0  0  0  0  0  0  0  0  0  0
  -48.8116   57.1056   59.0622 C   0  0  0  0  0  0  0  0  0  0  0  0
  -47.4338   56.5833   58.7640 C   0  0  0  0  0  0  0  0  0  0  0  0
  -47.0963   56.6205   57.3275 C   0  0  0  0  0  0  0  0  0  0  0  0
  -47.4158   55.3798   56.6240 C   0  0  0  0  0  0  0  0  0  0  0  0
  -42.5576   59.9841   65.5480 O   0  0  0  0  0  0  0  0  0  0  0  0
  -41.1272   60.1754   65.6225 C   0  0  0  0  0  0  0  0  0  0  0  0
  -40.8236   61.5068   64.9747 C   0  0  0  0  0  0  0  0  0  0  0  0
  -39.6264   62.0467   65.5345 O   0  0  0  0  0  0  0  0  0  0  0  0
  -38.8808   61.4616   65.3286 H   0  0  0  0  0  0  0  0  0  0  0  0
  -40.6708   61.4667   63.4735 C   0  0  0  0  0  0  0  0  0  0  0  0
  -39.7483   60.4118   63.1342 O   0  0  0  0  0  0  0  0  0  0  0  0
  -38.9330   60.4882   61.7709 P   0  0  0  0  0  0  0  0  0  0  0  0
  -39.9062   60.7863   60.7008 O   0  0  0  0  0  0  0  0  0  0  0  0
  -37.8068   61.4150   61.9977 O   0  0  0  0  0  0  0  0  0  0  0  0
  -38.1508   62.3042   62.1768 H   0  0  0  0  0  0  0  0  0  0  0  0
  -38.3120   59.0567   61.4843 O   0  0  0  0  0  0  0  0  0  0  0  0
  -38.0679   58.1476   62.5833 C   0  0  0  0  0  0  0  0  0  0  0  0
  -36.5691   58.1290   62.7801 C   0  0  0  0  0  0  0  0  0  0  0  0
  -36.0693   58.5317   64.1533 N   0  0  0  0  0  0  0  0  0  0  0  0
  -35.1903   59.7384   64.0746 C   0  0  0  0  0  0  0  0  0  0  0  0
  -35.2848   57.4073   64.7496 C   0  0  0  0  0  0  0  0  0  0  0  0
  -37.2343   58.8451   65.0389 C   0  0  0  0  0  0  0  0  0  0  0  0
 34 33  1  0  0  0
 34 35  1  0  0  0
 34 36  1  0  0  0
 34 37  1  0  0  0
 22 23  1  0  0  0
 22 25  1  0  0  0
 22 21  1  0  0  0
 23 24  1  0  0  0
 27 26  1  0  0  0
 27 28  2  0  0  0
 27 31  1  0  0  0
 27 29  1  0  0  0
 25 26  1  0  0  0
 32 33  1  0  0  0
 32 31  1  0  0  0
 29 30  1  0  0  0
 20 21  1  0  0  0
 20  2  1  0  0  0
  1  2  2  0  0  0
  2  3  1  0  0  0
  3  4  1  0  0  0
  4  5  1  0  0  0
  5  6  1  0  0  0
  6  7  1  0  0  0
  7  8  1  0  0  0
  8  9  1  0  0  0
  9 10  1  0  0  0
 10 11  2  0  0  0
 11 12  1  0  0  0
 12 13  1  0  0  0
 13 14  1  0  0  0
 14 15  1  0  0  0
 15 16  1  0  0  0
 16 17  1  0  0  0
 17 18  1  0  0  0
 18 19  1  0  0  0
M  CHG 1  28  -1
M  END
> <minimizedAffinity>
-8.34735

> <CNNscore>
0.6997486949

> <CNNaffinity>
6.8359313011

> <CNN_VS>
4.7834339142

> <CNNaffinity_variance>
0.3784798980

$$$$
/media/chris/experiments/cd1a-new-docking/inputs/ligands/4x6c_ligand.pdb


 37 36  0  0  0  0  0  0  0  0999 V2000
  -42.5357   57.4498   65.6312 O   0  0  0  0  0  0  0  0  0  0  0  0
  -43.3420   58.3289   65.6362 C   0  0  0  0  0  0  0  0  0  0  0  0
  -44.8151   58.1271   65.4936 C   0  0  0  0  0  0  0  0  0  0  0  0
  -45.5821   59.4313   65.3832 C   0  0  0  0  0  0  0  0  0  0  0  0
  -46.8451   59.4445   66.2169 C   0  0  0  0  0  0  0  0  0  0  0  0
  -47.8308   60.5263   65.8432 C   0  0  0  0  0  0  0  0  0  0  0  0
  -47.7748   60.9280   64.3914 C   0  0  0  0  0  0  0  0  0  0  0  0
  -49.1255   60.8765   63.7291 C   0  0  0  0  0  0  0  0  0  0  0  0
  -50.0362   59.7849   64.2079 C   0  0  0  0  0  0  0  0  0  0  0  0
  -49.5760   58.4383   63.8391 C   0  0  0  0  0  0  0  0  0  0  0  0
  -49.7590   57.8043   62.7019 C   0  0  0  0  0  0  0  0  0  0  0  0
  -50.4581   58.2920   61.4863 C   0  0  0  0  0  0  0  0  0  0  0  0
  -50.7082   57.2507   60.4146 C   0  0  0  0  0  0  0  0  0  0  0  0
  -49.5101   57.0231   59.5343 C   0  0  0  0  0  0  0  0  0  0  0  0
  -48.7762   55.7320   59.7914 C   0  0  0  0  0  0  0  0  0  0  0  0
  -47.5757   55.5556   58.8879 C   0  0  0  0  0  0  0  0  0  0  0  0
  -47.9018   55.3295   57.4380 C   0  0  0  0  0  0  0  0  0  0  0  0
  -47.1371   56.2036   56.5269 C   0  0  0  0  0  0  0  0  0  0  0  0
  -46.5268   57.3495   57.1983 C   0  0  0  0  0  0  0  0  0  0  0  0
  -43.0317   59.6192   65.7624 O   0  0  0  0  0  0  0  0  0  0  0  0
  -41.6389   59.9558   65.9486 C   0  0  0  0  0  0  0  0  0  0  0  0
  -41.4088   61.2846   65.2662 C   0  0  0  0  0  0  0  0  0  0  0  0
  -40.2978   61.9451   65.8727 O   0  0  0  0  0  0  0  0  0  0  0  0
  -39.4944   61.4195   65.7345 H   0  0  0  0  0  0  0  0  0  0  0  0
  -41.1609   61.2048   63.7794 C   0  0  0  0  0  0  0  0  0  0  0  0
  -39.7881   61.5632   63.5232 O   0  0  0  0  0  0  0  0  0  0  0  0
  -38.9052   60.6566   62.5599 P   0  0  0  0  0  0  0  0  0  0  0  0
  -39.0345   59.2648   63.0367 O   0  0  0  0  0  0  0  0  0  0  0  0
  -39.3071   60.9839   61.1778 O   0  0  0  0  0  0  0  0  0  0  0  0
  -40.2334   60.7300   61.0418 H   0  0  0  0  0  0  0  0  0  0  0  0
  -37.3883   61.0919   62.7228 O   0  0  0  0  0  0  0  0  0  0  0  0
  -36.7552   61.0141   64.0216 C   0  0  0  0  0  0  0  0  0  0  0  0
  -36.6294   62.4403   64.5070 C   0  0  0  0  0  0  0  0  0  0  0  0
  -35.2796   63.0996   64.3046 N   0  0  0  0  0  0  0  0  0  0  0  0
  -34.2134   62.0808   64.0592 C   0  0  0  0  0  0  0  0  0  0  0  0
  -34.9184   63.8847   65.5247 C   0  0  0  0  0  0  0  0  0  0  0  0
  -35.3427   64.0197   63.1261 C   0  0  0  0  0  0  0  0  0  0  0  0
 34 33  1  0  0  0
 34 35  1  0  0  0
 34 36  1  0  0  0
 34 37  1  0  0  0
 22 23  1  0  0  0
 22 25  1  0  0  0
 22 21  1  0  0  0
 23 24  1  0  0  0
 27 26  1  0  0  0
 27 28  2  0  0  0
 27 31  1  0  0  0
 27 29  1  0  0  0
 25 26  1  0  0  0
 32 33  1  0  0  0
 32 31  1  0  0  0
 29 30  1  0  0  0
 20 21  1  0  0  0
 20  2  1  0  0  0
  1  2  2  0  0  0
  2  3  1  0  0  0
  3  4  1  0  0  0
  4  5  1  0  0  0
  5  6  1  0  0  0
  6  7  1  0  0  0
  7  8  1  0  0  0
  8  9  1  0  0  0
  9 10  1  0  0  0
 10 11  2  0  0  0
 11 12  1  0  0  0
 12 13  1  0  0  0
 13 14  1  0  0  0
 14 15  1  0  0  0
 15 16  1  0  0  0
 16 17  1  0  0  0
 17 18  1  0  0  0
 18 19  1  0  0  0
M  CHG 1  28  -1
M  END
> <minimizedAffinity>
-7.95207

> <CNNscore>
0.6916268468

> <CNNaffinity>
6.5248022079

> <CNN_VS>
4.5127282143

> <CNNaffinity_variance>
0.3132190704

$$$$
/media/chris/experiments/cd1a-new-docking/inputs/ligands/4x6c_ligand.pdb


 37 36  0  0  0  0  0  0  0  0999 V2000
  -42.0408   60.5340   67.1618 O   0  0  0  0  0  0  0  0  0  0  0  0
  -42.0460   59.9998   66.0952 C   0  0  0  0  0  0  0  0  0  0  0  0
  -42.9159   58.8407   65.7334 C   0  0  0  0  0  0  0  0  0  0  0  0
  -44.1361   59.2464   64.9284 C   0  0  0  0  0  0  0  0  0  0  0  0
  -45.3779   58.4694   65.3087 C   0  0  0  0  0  0  0  0  0  0  0  0
  -46.2163   59.1170   66.3855 C   0  0  0  0  0  0  0  0  0  0  0  0
  -47.6639   59.2975   66.0060 C   0  0  0  0  0  0  0  0  0  0  0  0
  -48.2039   58.1270   65.2288 C   0  0  0  0  0  0  0  0  0  0  0  0
  -49.6928   58.1064   65.0473 C   0  0  0  0  0  0  0  0  0  0  0  0
  -50.3322   59.3999   65.3283 C   0  0  0  0  0  0  0  0  0  0  0  0
  -50.9470   60.1985   64.4840 C   0  0  0  0  0  0  0  0  0  0  0  0
  -51.1755   59.9912   63.0317 C   0  0  0  0  0  0  0  0  0  0  0  0
  -49.9742   60.2326   62.1405 C   0  0  0  0  0  0  0  0  0  0  0  0
  -49.7373   59.1103   61.1677 C   0  0  0  0  0  0  0  0  0  0  0  0
  -50.4783   57.8365   61.4834 C   0  0  0  0  0  0  0  0  0  0  0  0
  -50.4425   56.8445   60.3418 C   0  0  0  0  0  0  0  0  0  0  0  0
  -49.0782   56.3049   60.0140 C   0  0  0  0  0  0  0  0  0  0  0  0
  -48.5596   56.7839   58.7176 C   0  0  0  0  0  0  0  0  0  0  0  0
  -47.1594   56.4336   58.4876 C   0  0  0  0  0  0  0  0  0  0  0  0
  -41.2638   60.3644   65.0792 O   0  0  0  0  0  0  0  0  0  0  0  0
  -39.8701   59.9878   65.1412 C   0  0  0  0  0  0  0  0  0  0  0  0
  -39.0630   61.2645   65.0883 C   0  0  0  0  0  0  0  0  0  0  0  0
  -39.6897   62.2579   65.8999 O   0  0  0  0  0  0  0  0  0  0  0  0
  -39.6885   61.9672   66.8252 H   0  0  0  0  0  0  0  0  0  0  0  0
  -37.6249   61.1298   65.5267 C   0  0  0  0  0  0  0  0  0  0  0  0
  -37.0980   62.4473   65.7829 O   0  0  0  0  0  0  0  0  0  0  0  0
  -35.6575   62.6044   66.4383 P   0  0  0  0  0  0  0  0  0  0  0  0
  -35.8485   62.6297   67.9025 O   0  0  0  0  0  0  0  0  0  0  0  0
  -34.8006   61.5607   65.8424 O   0  0  0  0  0  0  0  0  0  0  0  0
  -35.1359   60.6854   66.0925 H   0  0  0  0  0  0  0  0  0  0  0  0
  -35.0630   64.0076   65.9969 O   0  0  0  0  0  0  0  0  0  0  0  0
  -33.6325   64.1653   65.8465 C   0  0  0  0  0  0  0  0  0  0  0  0
  -33.4417   65.3119   64.8797 C   0  0  0  0  0  0  0  0  0  0  0  0
  -33.2863   64.9371   63.4193 N   0  0  0  0  0  0  0  0  0  0  0  0
  -32.7727   66.0904   62.6185 C   0  0  0  0  0  0  0  0  0  0  0  0
  -34.6120   64.5236   62.8652 C   0  0  0  0  0  0  0  0  0  0  0  0
  -32.3220   63.7997   63.2933 C   0  0  0  0  0  0  0  0  0  0  0  0
 34 33  1  0  0  0
 34 35  1  0  0  0
 34 36  1  0  0  0
 34 37  1  0  0  0
 22 23  1  0  0  0
 22 25  1  0  0  0
 22 21  1  0  0  0
 23 24  1  0  0  0
 27 26  1  0  0  0
 27 28  2  0  0  0
 27 31  1  0  0  0
 27 29  1  0  0  0
 25 26  1  0  0  0
 32 33  1  0  0  0
 32 31  1  0  0  0
 29 30  1  0  0  0
 20 21  1  0  0  0
 20  2  1  0  0  0
  1  2  2  0  0  0
  2  3  1  0  0  0
  3  4  1  0  0  0
  4  5  1  0  0  0
  5  6  1  0  0  0
  6  7  1  0  0  0
  7  8  1  0  0  0
  8  9  1  0  0  0
  9 10  1  0  0  0
 10 11  2  0  0  0
 11 12  1  0  0  0
 12 13  1  0  0  0
 13 14  1  0  0  0
 14 15  1  0  0  0
 15 16  1  0  0  0
 16 17  1  0  0  0
 17 18  1  0  0  0
 18 19  1  0  0  0
M  CHG 1  28  -1
M  END
> <minimizedAffinity>
-8.36494

> <CNNscore>
0.6758120060

> <CNNaffinity>
6.2227749825

> <CNN_VS>
4.2054262161

> <CNNaffinity_variance>
0.4224793315

$$$$
/media/chris/experiments/cd1a-new-docking/inputs/ligands/4x6c_ligand.pdb


 37 36  0  0  0  0  0  0  0  0999 V2000
  -41.7961   58.0769   65.4990 O   0  0  0  0  0  0  0  0  0  0  0  0
  -42.4992   59.0311   65.6339 C   0  0  0  0  0  0  0  0  0  0  0  0
  -43.9009   58.9836   66.1481 C   0  0  0  0  0  0  0  0  0  0  0  0
  -44.9353   59.2370   65.0677 C   0  0  0  0  0  0  0  0  0  0  0  0
  -46.3295   59.4357   65.6219 C   0  0  0  0  0  0  0  0  0  0  0  0
  -47.4371   59.2514   64.6115 C   0  0  0  0  0  0  0  0  0  0  0  0
  -48.2581   58.0056   64.8261 C   0  0  0  0  0  0  0  0  0  0  0  0
  -49.6768   58.3144   65.2230 C   0  0  0  0  0  0  0  0  0  0  0  0
  -50.0706   59.7590   65.1332 C   0  0  0  0  0  0  0  0  0  0  0  0
  -51.1686   60.0061   64.1874 C   0  0  0  0  0  0  0  0  0  0  0  0
  -51.0873   60.2304   62.8944 C   0  0  0  0  0  0  0  0  0  0  0  0
  -49.8674   60.2698   62.0490 C   0  0  0  0  0  0  0  0  0  0  0  0
  -49.5173   58.9739   61.3467 C   0  0  0  0  0  0  0  0  0  0  0  0
  -50.5888   57.9280   61.4883 C   0  0  0  0  0  0  0  0  0  0  0  0
  -50.6078   56.8937   60.3921 C   0  0  0  0  0  0  0  0  0  0  0  0
  -49.6412   57.2142   59.2733 C   0  0  0  0  0  0  0  0  0  0  0  0
  -48.5612   56.1912   59.0568 C   0  0  0  0  0  0  0  0  0  0  0  0
  -47.3879   56.7275   58.3393 C   0  0  0  0  0  0  0  0  0  0  0  0
  -47.5315   56.6935   56.8852 C   0  0  0  0  0  0  0  0  0  0  0  0
  -42.1270   60.2753   65.3333 O   0  0  0  0  0  0  0  0  0  0  0  0
  -41.2459   60.4535   64.2019 C   0  0  0  0  0  0  0  0  0  0  0  0
  -40.0969   61.3184   64.6666 C   0  0  0  0  0  0  0  0  0  0  0  0
  -40.5947   62.3608   65.5056 O   0  0  0  0  0  0  0  0  0  0  0  0
  -40.9903   61.9736   66.3021 H   0  0  0  0  0  0  0  0  0  0  0  0
  -39.0076   60.5867   65.4126 C   0  0  0  0  0  0  0  0  0  0  0  0
  -38.9424   59.2337   64.9186 O   0  0  0  0  0  0  0  0  0  0  0  0
  -37.6612   58.7534   64.1079 P   0  0  0  0  0  0  0  0  0  0  0  0
  -38.1161   57.7278   63.1476 O   0  0  0  0  0  0  0  0  0  0  0  0
  -36.9959   59.9694   63.6004 O   0  0  0  0  0  0  0  0  0  0  0  0
  -37.5813   60.4198   62.9716 H   0  0  0  0  0  0  0  0  0  0  0  0
  -36.6608   58.0619   65.1268 O   0  0  0  0  0  0  0  0  0  0  0  0
  -35.5909   57.2263   64.6261 C   0  0  0  0  0  0  0  0  0  0  0  0
  -34.3060   57.9250   65.0090 C   0  0  0  0  0  0  0  0  0  0  0  0
  -33.5231   58.5552   63.8743 N   0  0  0  0  0  0  0  0  0  0  0  0
  -33.5802   60.0475   63.9438 C   0  0  0  0  0  0  0  0  0  0  0  0
  -34.0974   58.1157   62.5658 C   0  0  0  0  0  0  0  0  0  0  0  0
  -32.0916   58.1267   63.9542 C   0  0  0  0  0  0  0  0  0  0  0  0
 34 33  1  0  0  0
 34 35  1  0  0  0
 34 36  1  0  0  0
 34 37  1  0  0  0
 22 23  1  0  0  0
 22 25  1  0  0  0
 22 21  1  0  0  0
 23 24  1  0  0  0
 27 26  1  0  0  0
 27 28  2  0  0  0
 27 31  1  0  0  0
 27 29  1  0  0  0
 25 26  1  0  0  0
 32 33  1  0  0  0
 32 31  1  0  0  0
 29 30  1  0  0  0
 20 21  1  0  0  0
 20  2  1  0  0  0
  1  2  2  0  0  0
  2  3  1  0  0  0
  3  4  1  0  0  0
  4  5  1  0  0  0
  5  6  1  0  0  0
  6  7  1  0  0  0
  7  8  1  0  0  0
  8  9  1  0  0  0
  9 10  1  0  0  0
 10 11  2  0  0  0
 11 12  1  0  0  0
 12 13  1  0  0  0
 13 14  1  0  0  0
 14 15  1  0  0  0
 15 16  1  0  0  0
 16 17  1  0  0  0
 17 18  1  0  0  0
 18 19  1  0  0  0
M  CHG 1  28  -1
M  END
> <minimizedAffinity>
-7.73461

> <CNNscore>
0.6573977470

> <CNNaffinity>
6.4373106956

> <CNN_VS>
4.2318735123

> <CNNaffinity_variance>
0.3193291426

$$$$
/media/chris/experiments/cd1a-new-docking/inputs/ligands/4x6c_ligand.pdb


 37 36  0  0  0  0  0  0  0  0999 V2000
  -41.0111   58.7720   65.0875 O   0  0  0  0  0  0  0  0  0  0  0  0
  -41.3237   59.7752   65.6521 C   0  0  0  0  0  0  0  0  0  0  0  0
  -42.6135   59.9703   66.3797 C   0  0  0  0  0  0  0  0  0  0  0  0
  -43.6840   58.9807   65.9600 C   0  0  0  0  0  0  0  0  0  0  0  0
  -44.8521   59.6389   65.2580 C   0  0  0  0  0  0  0  0  0  0  0  0
  -46.2094   59.1736   65.7304 C   0  0  0  0  0  0  0  0  0  0  0  0
  -47.2555   59.1422   64.6456 C   0  0  0  0  0  0  0  0  0  0  0  0
  -48.2375   58.0161   64.8275 C   0  0  0  0  0  0  0  0  0  0  0  0
  -49.5953   58.4193   65.3215 C   0  0  0  0  0  0  0  0  0  0  0  0
  -49.9075   59.8350   65.0775 C   0  0  0  0  0  0  0  0  0  0  0  0
  -50.5620   60.3556   64.0630 C   0  0  0  0  0  0  0  0  0  0  0  0
  -51.1756   59.6473   62.9114 C   0  0  0  0  0  0  0  0  0  0  0  0
  -50.2012   59.0709   61.9046 C   0  0  0  0  0  0  0  0  0  0  0  0
  -50.4694   57.6229   61.5992 C   0  0  0  0  0  0  0  0  0  0  0  0
  -50.4937   57.2832   60.1310 C   0  0  0  0  0  0  0  0  0  0  0  0
  -49.2049   57.6486   59.4280 C   0  0  0  0  0  0  0  0  0  0  0  0
  -48.8819   56.8116   58.2219 C   0  0  0  0  0  0  0  0  0  0  0  0
  -47.7075   55.9389   58.4174 C   0  0  0  0  0  0  0  0  0  0  0  0
  -47.1061   55.4859   57.1647 C   0  0  0  0  0  0  0  0  0  0  0  0
  -40.5604   60.8670   65.7019 O   0  0  0  0  0  0  0  0  0  0  0  0
  -39.6863   61.1221   64.5798 C   0  0  0  0  0  0  0  0  0  0  0  0
  -38.3793   61.6313   65.1427 C   0  0  0  0  0  0  0  0  0  0  0  0
  -38.0792   60.9362   66.3530 O   0  0  0  0  0  0  0  0  0  0  0  0
  -37.9505   59.9941   66.1614 H   0  0  0  0  0  0  0  0  0  0  0  0
  -37.1937   61.5078   64.2167 C   0  0  0  0  0  0  0  0  0  0  0  0
  -36.9406   62.7961   63.6209 O   0  0  0  0  0  0  0  0  0  0  0  0
  -35.4599   63.3761   63.6007 P   0  0  0  0  0  0  0  0  0  0  0  0
  -34.5513   62.2538   63.9101 O   0  0  0  0  0  0  0  0  0  0  0  0
  -35.3014   64.0990   62.3236 O   0  0  0  0  0  0  0  0  0  0  0  0
  -35.3746   63.4728   61.5864 H   0  0  0  0  0  0  0  0  0  0  0  0
  -35.3314   64.4466   64.7646 O   0  0  0  0  0  0  0  0  0  0  0  0
  -34.1320   64.4865   65.5731 C   0  0  0  0  0  0  0  0  0  0  0  0
  -33.2905   65.6094   65.0104 C   0  0  0  0  0  0  0  0  0  0  0  0
  -31.8026   65.3413   64.9024 N   0  0  0  0  0  0  0  0  0  0  0  0
  -31.1629   65.3003   66.2530 C   0  0  0  0  0  0  0  0  0  0  0  0
  -31.1561   66.4249   64.1003 C   0  0  0  0  0  0  0  0  0  0  0  0
  -31.5779   64.0254   64.2262 C   0  0  0  0  0  0  0  0  0  0  0  0
 34 33  1  0  0  0
 34 35  1  0  0  0
 34 36  1  0  0  0
 34 37  1  0  0  0
 22 23  1  0  0  0
 22 25  1  0  0  0
 22 21  1  0  0  0
 23 24  1  0  0  0
 27 26  1  0  0  0
 27 28  2  0  0  0
 27 31  1  0  0  0
 27 29  1  0  0  0
 25 26  1  0  0  0
 32 33  1  0  0  0
 32 31  1  0  0  0
 29 30  1  0  0  0
 20 21  1  0  0  0
 20  2  1  0  0  0
  1  2  2  0  0  0
  2  3  1  0  0  0
  3  4  1  0  0  0
  4  5  1  0  0  0
  5  6  1  0  0  0
  6  7  1  0  0  0
  7  8  1  0  0  0
  8  9  1  0  0  0
  9 10  1  0  0  0
 10 11  2  0  0  0
 11 12  1  0  0  0
 12 13  1  0  0  0
 13 14  1  0  0  0
 14 15  1  0  0  0
 15 16  1  0  0  0
 16 17  1  0  0  0
 17 18  1  0  0  0
 18 19  1  0  0  0
M  CHG 1  28  -1
M  END
> <minimizedAffinity>
-7.78669

> <CNNscore>
0.6457836032

> <CNNaffinity>
6.0252308846

> <CNN_VS>
3.8909952641

> <CNNaffinity_variance>
0.4736096263

$$$$
/media/chris/experiments/cd1a-new-docking/inputs/ligands/4x6c_ligand.pdb


 37 36  0  0  0  0  0  0  0  0999 V2000
  -38.4656   58.2746   63.1180 O   0  0  0  0  0  0  0  0  0  0  0  0
  -38.8599   58.8415   64.0907 C   0  0  0  0  0  0  0  0  0  0  0  0
  -40.1376   58.5235   64.7961 C   0  0  0  0  0  0  0  0  0  0  0  0
  -40.9183   59.7627   65.1916 C   0  0  0  0  0  0  0  0  0  0  0  0
  -41.7873   59.5471   66.4117 C   0  0  0  0  0  0  0  0  0  0  0  0
  -43.2570   59.8155   66.1890 C   0  0  0  0  0  0  0  0  0  0  0  0
  -43.9143   58.8557   65.2304 C   0  0  0  0  0  0  0  0  0  0  0  0
  -45.2836   58.4325   65.6904 C   0  0  0  0  0  0  0  0  0  0  0  0
  -46.3092   58.2821   64.6061 C   0  0  0  0  0  0  0  0  0  0  0  0
  -47.6629   58.0210   65.1164 C   0  0  0  0  0  0  0  0  0  0  0  0
  -48.7714   57.8663   64.4265 C   0  0  0  0  0  0  0  0  0  0  0  0
  -48.9407   57.8923   62.9517 C   0  0  0  0  0  0  0  0  0  0  0  0
  -50.3414   58.1958   62.4603 C   0  0  0  0  0  0  0  0  0  0  0  0
  -50.5814   57.7153   61.0554 C   0  0  0  0  0  0  0  0  0  0  0  0
  -49.5026   58.0860   60.0703 C   0  0  0  0  0  0  0  0  0  0  0  0
  -49.2601   57.0056   59.0396 C   0  0  0  0  0  0  0  0  0  0  0  0
  -48.1719   56.0292   59.3894 C   0  0  0  0  0  0  0  0  0  0  0  0
  -47.0104   56.1033   58.4814 C   0  0  0  0  0  0  0  0  0  0  0  0
  -47.1126   57.1767   57.4948 C   0  0  0  0  0  0  0  0  0  0  0  0
  -38.2111   59.8477   64.6769 O   0  0  0  0  0  0  0  0  0  0  0  0
  -37.2838   60.6054   63.8681 C   0  0  0  0  0  0  0  0  0  0  0  0
  -37.4722   62.0620   64.2245 C   0  0  0  0  0  0  0  0  0  0  0  0
  -38.0867   62.1622   65.5093 O   0  0  0  0  0  0  0  0  0  0  0  0
  -37.4957   61.7865   66.1805 H   0  0  0  0  0  0  0  0  0  0  0  0
  -36.2071   62.8854   64.2368 C   0  0  0  0  0  0  0  0  0  0  0  0
  -36.0525   63.4694   65.5460 O   0  0  0  0  0  0  0  0  0  0  0  0
  -34.9788   62.8683   66.5535 P   0  0  0  0  0  0  0  0  0  0  0  0
  -34.2189   64.0075   67.1066 O   0  0  0  0  0  0  0  0  0  0  0  0
  -35.7095   61.9758   67.4745 O   0  0  0  0  0  0  0  0  0  0  0  0
  -36.3364   62.4969   68.0003 H   0  0  0  0  0  0  0  0  0  0  0  0
  -33.9729   61.9643   65.7239 O   0  0  0  0  0  0  0  0  0  0  0  0
  -34.1406   60.5271   65.7150 C   0  0  0  0  0  0  0  0  0  0  0  0
  -33.6844   60.0655   64.3495 C   0  0  0  0  0  0  0  0  0  0  0  0
  -33.6287   58.5662   64.1339 N   0  0  0  0  0  0  0  0  0  0  0  0
  -34.7726   57.8815   64.8104 C   0  0  0  0  0  0  0  0  0  0  0  0
  -32.3511   58.0275   64.6933 C   0  0  0  0  0  0  0  0  0  0  0  0
  -33.6909   58.2677   62.6688 C   0  0  0  0  0  0  0  0  0  0  0  0
 34 33  1  0  0  0
 34 35  1  0  0  0
 34 36  1  0  0  0
 34 37  1  0  0  0
 22 23  1  0  0  0
 22 25  1  0  0  0
 22 21  1  0  0  0
 23 24  1  0  0  0
 27 26  1  0  0  0
 27 28  2  0  0  0
 27 31  1  0  0  0
 27 29  1  0  0  0
 25 26  1  0  0  0
 32 33  1  0  0  0
 32 31  1  0  0  0
 29 30  1  0  0  0
 20 21  1  0  0  0
 20  2  1  0  0  0
  1  2  2  0  0  0
  2  3  1  0  0  0
  3  4  1  0  0  0
  4  5  1  0  0  0
  5  6  1  0  0  0
  6  7  1  0  0  0
  7  8  1  0  0  0
  8  9  1  0  0  0
  9 10  1  0  0  0
 10 11  2  0  0  0
 11 12  1  0  0  0
 12 13  1  0  0  0
 13 14  1  0  0  0
 14 15  1  0  0  0
 15 16  1  0  0  0
 16 17  1  0  0  0
 17 18  1  0  0  0
 18 19  1  0  0  0
M  CHG 1  28  -1
M  END
> <minimizedAffinity>
-7.72862

> <CNNscore>
0.6263424158

> <CNNaffinity>
6.3717160225

> <CNN_VS>
3.9908759594

> <CNNaffinity_variance>
0.1495353580

$$$$
