/media/chris/experiments/cd1a-new-docking/inputs/ligands/4x6c_ligand.pdb


 37 36  0  0  0  0  0  0  0  0999 V2000
  -42.5249   57.5193   65.9447 O   0  0  0  0  0  0  0  0  0  0  0  0
  -43.0137   58.5076   65.4891 C   0  0  0  0  0  0  0  0  0  0  0  0
  -44.4823   58.7308   65.3330 C   0  0  0  0  0  0  0  0  0  0  0  0
  -45.2762   57.4384   65.3001 C   0  0  0  0  0  0  0  0  0  0  0  0
  -46.7378   57.6360   65.6392 C   0  0  0  0  0  0  0  0  0  0  0  0
  -47.5824   58.1471   64.4959 C   0  0  0  0  0  0  0  0  0  0  0  0
  -47.9049   59.6169   64.5849 C   0  0  0  0  0  0  0  0  0  0  0  0
  -48.9996   59.9052   65.5770 C   0  0  0  0  0  0  0  0  0  0  0  0
  -50.3703   59.4479   65.1745 C   0  0  0  0  0  0  0  0  0  0  0  0
  -50.9054   60.1659   64.0087 C   0  0  0  0  0  0  0  0  0  0  0  0
  -51.0663   59.7140   62.7845 C   0  0  0  0  0  0  0  0  0  0  0  0
  -50.7709   58.3543   62.2664 C   0  0  0  0  0  0  0  0  0  0  0  0
  -49.7864   58.2932   61.1164 C   0  0  0  0  0  0  0  0  0  0  0  0
  -50.3633   57.6381   59.8916 C   0  0  0  0  0  0  0  0  0  0  0  0
  -49.3401   57.1270   58.9100 C   0  0  0  0  0  0  0  0  0  0  0  0
  -48.4567   56.0493   59.4989 C   0  0  0  0  0  0  0  0  0  0  0  0
  -47.1350   55.8653   58.8068 C   0  0  0  0  0  0  0  0  0  0  0  0
  -46.9067   56.8392   57.7212 C   0  0  0  0  0  0  0  0  0  0  0  0
  -46.9788   56.2479   56.3866 C   0  0  0  0  0  0  0  0  0  0  0  0
  -42.3077   59.5486   65.0480 O   0  0  0  0  0  0  0  0  0  0  0  0
  -41.9429   60.5635   66.0098 C   0  0  0  0  0  0  0  0  0  0  0  0
  -40.6899   61.2332   65.4940 C   0  0  0  0  0  0  0  0  0  0  0  0
  -40.6136   62.5622   66.0099 O   0  0  0  0  0  0  0  0  0  0  0  0
  -40.5330   62.5297   66.9762 H   0  0  0  0  0  0  0  0  0  0  0  0
  -39.4017   60.5197   65.8250 C   0  0  0  0  0  0  0  0  0  0  0  0
  -38.4126   60.8769   64.8385 O   0  0  0  0  0  0  0  0  0  0  0  0
  -36.9966   61.4277   65.3082 P   0  0  0  0  0  0  0  0  0  0  0  0
  -36.8246   62.7595   64.6936 O   0  0  0  0  0  0  0  0  0  0  0  0
  -36.9559   61.3033   66.7786 O   0  0  0  0  0  0  0  0  0  0  0  0
  -37.6320   61.8780   67.1704 H   0  0  0  0  0  0  0  0  0  0  0  0
  -35.8744   60.4698   64.7253 O   0  0  0  0  0  0  0  0  0  0  0  0
  -36.1475   59.0575   64.5680 C   0  0  0  0  0  0  0  0  0  0  0  0
  -36.1268   58.7952   63.0793 C   0  0  0  0  0  0  0  0  0  0  0  0
  -37.3805   58.1793   62.4907 N   0  0  0  0  0  0  0  0  0  0  0  0
  -38.1401   59.1769   61.6765 C   0  0  0  0  0  0  0  0  0  0  0  0
  -38.2637   57.6914   63.5940 C   0  0  0  0  0  0  0  0  0  0  0  0
  -37.0078   57.0278   61.6107 C   0  0  0  0  0  0  0  0  0  0  0  0
 34 33  1  0  0  0
 34 35  1  0  0  0
 34 36  1  0  0  0
 34 37  1  0  0  0
 22 23  1  0  0  0
 22 25  1  0  0  0
 22 21  1  0  0  0
 23 24  1  0  0  0
 27 26  1  0  0  0
 27 28  2  0  0  0
 27 31  1  0  0  0
 27 29  1  0  0  0
 25 26  1  0  0  0
 32 33  1  0  0  0
 32 31  1  0  0  0
 29 30  1  0  0  0
 20 21  1  0  0  0
 20  2  1  0  0  0
  1  2  2  0  0  0
  2  3  1  0  0  0
  3  4  1  0  0  0
  4  5  1  0  0  0
  5  6  1  0  0  0
  6  7  1  0  0  0
  7  8  1  0  0  0
  8  9  1  0  0  0
  9 10  1  0  0  0
 10 11  2  0  0  0
 11 12  1  0  0  0
 12 13  1  0  0  0
 13 14  1  0  0  0
 14 15  1  0  0  0
 15 16  1  0  0  0
 16 17  1  0  0  0
 17 18  1  0  0  0
 18 19  1  0  0  0
M  CHG 1  28  -1
M  END
> <minimizedAffinity>
-8.29433

> <CNNscore>
0.9302947521

> <CNNaffinity>
7.3023920059

> <CNN_VS>
6.7933769226

> <CNNaffinity_variance>
0.4634558260

$$$$
/media/chris/experiments/cd1a-new-docking/inputs/ligands/4x6c_ligand.pdb


 37 36  0  0  0  0  0  0  0  0999 V2000
  -42.1317   58.0637   66.0346 O   0  0  0  0  0  0  0  0  0  0  0  0
  -42.9138   58.8583   65.6103 C   0  0  0  0  0  0  0  0  0  0  0  0
  -44.0481   58.5250   64.6974 C   0  0  0  0  0  0  0  0  0  0  0  0
  -44.9893   57.4872   65.2791 C   0  0  0  0  0  0  0  0  0  0  0  0
  -46.2597   58.0911   65.8376 C   0  0  0  0  0  0  0  0  0  0  0  0
  -47.3724   58.2525   64.8288 C   0  0  0  0  0  0  0  0  0  0  0  0
  -48.5160   57.2898   65.0224 C   0  0  0  0  0  0  0  0  0  0  0  0
  -49.8176   57.9930   65.3002 C   0  0  0  0  0  0  0  0  0  0  0  0
  -49.7466   59.4910   65.3300 C   0  0  0  0  0  0  0  0  0  0  0  0
  -50.8103   60.1406   64.5507 C   0  0  0  0  0  0  0  0  0  0  0  0
  -50.7830   60.4976   63.2856 C   0  0  0  0  0  0  0  0  0  0  0  0
  -49.6793   60.3171   62.3090 C   0  0  0  0  0  0  0  0  0  0  0  0
  -49.9489   59.3273   61.1941 C   0  0  0  0  0  0  0  0  0  0  0  0
  -50.0019   57.9049   61.6798 C   0  0  0  0  0  0  0  0  0  0  0  0
  -49.6806   56.8697   60.6325 C   0  0  0  0  0  0  0  0  0  0  0  0
  -49.8351   57.3998   59.2241 C   0  0  0  0  0  0  0  0  0  0  0  0
  -48.7508   56.9854   58.2689 C   0  0  0  0  0  0  0  0  0  0  0  0
  -48.1538   55.6765   58.5995 C   0  0  0  0  0  0  0  0  0  0  0  0
  -46.6996   55.7206   58.7393 C   0  0  0  0  0  0  0  0  0  0  0  0
  -42.8737   60.1609   65.8905 O   0  0  0  0  0  0  0  0  0  0  0  0
  -41.7326   60.6498   66.6301 C   0  0  0  0  0  0  0  0  0  0  0  0
  -40.7640   61.2245   65.6221 C   0  0  0  0  0  0  0  0  0  0  0  0
  -40.5718   62.6144   65.8855 O   0  0  0  0  0  0  0  0  0  0  0  0
  -40.1621   62.7246   66.7579 H   0  0  0  0  0  0  0  0  0  0  0  0
  -39.4112   60.5562   65.5831 C   0  0  0  0  0  0  0  0  0  0  0  0
  -38.4261   61.4849   66.0792 O   0  0  0  0  0  0  0  0  0  0  0  0
  -36.9737   61.5111   65.4318 P   0  0  0  0  0  0  0  0  0  0  0  0
  -36.7671   60.2026   64.7790 O   0  0  0  0  0  0  0  0  0  0  0  0
  -36.8897   62.7412   64.6201 O   0  0  0  0  0  0  0  0  0  0  0  0
  -37.5281   62.6919   63.8915 H   0  0  0  0  0  0  0  0  0  0  0  0
  -35.9120   61.6484   66.6026 O   0  0  0  0  0  0  0  0  0  0  0  0
  -34.5059   61.7744   66.2848 C   0  0  0  0  0  0  0  0  0  0  0  0
  -34.1552   63.2250   66.5263 C   0  0  0  0  0  0  0  0  0  0  0  0
  -33.4855   63.9519   65.3771 N   0  0  0  0  0  0  0  0  0  0  0  0
  -33.2663   63.0370   64.2152 C   0  0  0  0  0  0  0  0  0  0  0  0
  -32.1610   64.4819   65.8244 C   0  0  0  0  0  0  0  0  0  0  0  0
  -34.3488   65.0908   64.9332 C   0  0  0  0  0  0  0  0  0  0  0  0
 34 33  1  0  0  0
 34 35  1  0  0  0
 34 36  1  0  0  0
 34 37  1  0  0  0
 22 23  1  0  0  0
 22 25  1  0  0  0
 22 21  1  0  0  0
 23 24  1  0  0  0
 27 26  1  0  0  0
 27 28  2  0  0  0
 27 31  1  0  0  0
 27 29  1  0  0  0
 25 26  1  0  0  0
 32 33  1  0  0  0
 32 31  1  0  0  0
 29 30  1  0  0  0
 20 21  1  0  0  0
 20  2  1  0  0  0
  1  2  2  0  0  0
  2  3  1  0  0  0
  3  4  1  0  0  0
  4  5  1  0  0  0
  5  6  1  0  0  0
  6  7  1  0  0  0
  7  8  1  0  0  0
  8  9  1  0  0  0
  9 10  1  0  0  0
 10 11  2  0  0  0
 11 12  1  0  0  0
 12 13  1  0  0  0
 13 14  1  0  0  0
 14 15  1  0  0  0
 15 16  1  0  0  0
 16 17  1  0  0  0
 17 18  1  0  0  0
 18 19  1  0  0  0
M  CHG 1  28  -1
M  END
> <minimizedAffinity>
-8.03023

> <CNNscore>
0.8412411213

> <CNNaffinity>
6.5198411942

> <CNN_VS>
5.4847583771

> <CNNaffinity_variance>
0.2842667401

$$$$
/media/chris/experiments/cd1a-new-docking/inputs/ligands/4x6c_ligand.pdb


 37 36  0  0  0  0  0  0  0  0999 V2000
  -42.2054   58.0800   66.3518 O   0  0  0  0  0  0  0  0  0  0  0  0
  -42.2202   58.9340   65.5190 C   0  0  0  0  0  0  0  0  0  0  0  0
  -43.4611   59.5481   64.9585 C   0  0  0  0  0  0  0  0  0  0  0  0
  -44.6927   59.2614   65.7966 C   0  0  0  0  0  0  0  0  0  0  0  0
  -45.7586   58.5016   65.0370 C   0  0  0  0  0  0  0  0  0  0  0  0
  -47.1715   58.9565   65.3171 C   0  0  0  0  0  0  0  0  0  0  0  0
  -48.2098   57.8824   65.1155 C   0  0  0  0  0  0  0  0  0  0  0  0
  -49.6123   58.3990   65.2937 C   0  0  0  0  0  0  0  0  0  0  0  0
  -49.8271   59.8292   64.8958 C   0  0  0  0  0  0  0  0  0  0  0  0
  -51.0372   60.0336   64.0867 C   0  0  0  0  0  0  0  0  0  0  0  0
  -51.1778   59.8788   62.7886 C   0  0  0  0  0  0  0  0  0  0  0  0
  -50.1571   59.4354   61.8056 C   0  0  0  0  0  0  0  0  0  0  0  0
  -49.8959   57.9436   61.7632 C   0  0  0  0  0  0  0  0  0  0  0  0
  -50.6714   57.2483   60.6782 C   0  0  0  0  0  0  0  0  0  0  0  0
  -49.9973   57.2384   59.3301 C   0  0  0  0  0  0  0  0  0  0  0  0
  -48.5168   56.9413   59.4223 C   0  0  0  0  0  0  0  0  0  0  0  0
  -48.0864   55.6581   58.7681 C   0  0  0  0  0  0  0  0  0  0  0  0
  -46.8942   55.8135   57.9116 C   0  0  0  0  0  0  0  0  0  0  0  0
  -46.8257   57.1110   57.2424 C   0  0  0  0  0  0  0  0  0  0  0  0
  -41.1224   59.4518   64.9680 O   0  0  0  0  0  0  0  0  0  0  0  0
  -41.2523   60.7183   64.2843 C   0  0  0  0  0  0  0  0  0  0  0  0
  -40.2753   61.6733   64.9307 C   0  0  0  0  0  0  0  0  0  0  0  0
  -40.9058   62.3257   66.0329 O   0  0  0  0  0  0  0  0  0  0  0  0
  -41.1387   61.6686   66.7075 H   0  0  0  0  0  0  0  0  0  0  0  0
  -38.9945   61.0426   65.4205 C   0  0  0  0  0  0  0  0  0  0  0  0
  -37.9855   62.0679   65.5167 O   0  0  0  0  0  0  0  0  0  0  0  0
  -36.4604   61.6558   65.6999 P   0  0  0  0  0  0  0  0  0  0  0  0
  -35.6736   62.4789   64.7595 O   0  0  0  0  0  0  0  0  0  0  0  0
  -36.1668   61.7349   67.1445 O   0  0  0  0  0  0  0  0  0  0  0  0
  -36.2537   62.6540   67.4421 H   0  0  0  0  0  0  0  0  0  0  0  0
  -36.3031   60.1363   65.2720 O   0  0  0  0  0  0  0  0  0  0  0  0
  -35.7077   59.8087   63.9945 C   0  0  0  0  0  0  0  0  0  0  0  0
  -36.0800   58.3692   63.7212 C   0  0  0  0  0  0  0  0  0  0  0  0
  -37.2671   58.1472   62.8051 N   0  0  0  0  0  0  0  0  0  0  0  0
  -36.9633   57.1117   61.7704 C   0  0  0  0  0  0  0  0  0  0  0  0
  -37.6113   59.4272   62.1133 C   0  0  0  0  0  0  0  0  0  0  0  0
  -38.4426   57.6892   63.6099 C   0  0  0  0  0  0  0  0  0  0  0  0
 34 33  1  0  0  0
 34 35  1  0  0  0
 34 36  1  0  0  0
 34 37  1  0  0  0
 22 23  1  0  0  0
 22 25  1  0  0  0
 22 21  1  0  0  0
 23 24  1  0  0  0
 27 26  1  0  0  0
 27 28  2  0  0  0
 27 31  1  0  0  0
 27 29  1  0  0  0
 25 26  1  0  0  0
 32 33  1  0  0  0
 32 31  1  0  0  0
 29 30  1  0  0  0
 20 21  1  0  0  0
 20  2  1  0  0  0
  1  2  2  0  0  0
  2  3  1  0  0  0
  3  4  1  0  0  0
  4  5  1  0  0  0
  5  6  1  0  0  0
  6  7  1  0  0  0
  7  8  1  0  0  0
  8  9  1  0  0  0
  9 10  1  0  0  0
 10 11  2  0  0  0
 11 12  1  0  0  0
 12 13  1  0  0  0
 13 14  1  0  0  0
 14 15  1  0  0  0
 15 16  1  0  0  0
 16 17  1  0  0  0
 17 18  1  0  0  0
 18 19  1  0  0  0
M  CHG 1  28  -1
M  END
> <minimizedAffinity>
-8.15801

> <CNNscore>
0.8392856717

> <CNNaffinity>
7.0863561630

> <CNN_VS>
5.9474773407

> <CNNaffinity_variance>
0.5349165201

$$$$
/media/chris/experiments/cd1a-new-docking/inputs/ligands/4x6c_ligand.pdb


 37 36  0  0  0  0  0  0  0  0999 V2000
  -43.3358   56.9221   65.9027 O   0  0  0  0  0  0  0  0  0  0  0  0
  -43.8504   57.7881   65.2638 C   0  0  0  0  0  0  0  0  0  0  0  0
  -45.1962   57.6825   64.6245 C   0  0  0  0  0  0  0  0  0  0  0  0
  -46.3037   58.2703   65.4785 C   0  0  0  0  0  0  0  0  0  0  0  0
  -47.5597   58.5710   64.6895 C   0  0  0  0  0  0  0  0  0  0  0  0
  -48.6762   57.5727   64.8852 C   0  0  0  0  0  0  0  0  0  0  0  0
  -49.9913   58.1968   65.2768 C   0  0  0  0  0  0  0  0  0  0  0  0
  -50.0380   59.6716   64.9790 C   0  0  0  0  0  0  0  0  0  0  0  0
  -50.9519   60.0739   63.8596 C   0  0  0  0  0  0  0  0  0  0  0  0
  -50.2637   60.2186   62.5687 C   0  0  0  0  0  0  0  0  0  0  0  0
  -50.1339   59.3214   61.6165 C   0  0  0  0  0  0  0  0  0  0  0  0
  -50.6677   57.9362   61.5873 C   0  0  0  0  0  0  0  0  0  0  0  0
  -50.5791   57.2300   60.2498 C   0  0  0  0  0  0  0  0  0  0  0  0
  -49.1673   57.1200   59.7431 C   0  0  0  0  0  0  0  0  0  0  0  0
  -48.6108   55.7193   59.7294 C   0  0  0  0  0  0  0  0  0  0  0  0
  -47.6139   55.5005   58.6127 C   0  0  0  0  0  0  0  0  0  0  0  0
  -48.1425   55.7658   57.2307 C   0  0  0  0  0  0  0  0  0  0  0  0
  -47.2593   56.6338   56.4271 C   0  0  0  0  0  0  0  0  0  0  0  0
  -46.2544   57.3353   57.2233 C   0  0  0  0  0  0  0  0  0  0  0  0
  -43.2843   58.9715   65.0270 O   0  0  0  0  0  0  0  0  0  0  0  0
  -43.0543   59.8398   66.1589 C   0  0  0  0  0  0  0  0  0  0  0  0
  -41.5616   60.0571   66.2549 C   0  0  0  0  0  0  0  0  0  0  0  0
  -40.8803   58.9451   65.6740 O   0  0  0  0  0  0  0  0  0  0  0  0
  -41.0929   58.8936   64.7288 H   0  0  0  0  0  0  0  0  0  0  0  0
  -41.0564   61.3196   65.5998 C   0  0  0  0  0  0  0  0  0  0  0  0
  -39.7234   61.5846   66.0810 O   0  0  0  0  0  0  0  0  0  0  0  0
  -38.4829   61.3989   65.1031 P   0  0  0  0  0  0  0  0  0  0  0  0
  -39.0086   61.4440   63.7238 O   0  0  0  0  0  0  0  0  0  0  0  0
  -37.4620   62.3819   65.5164 O   0  0  0  0  0  0  0  0  0  0  0  0
  -37.8036   63.2794   65.3800 H   0  0  0  0  0  0  0  0  0  0  0  0
  -37.8708   59.9560   65.3481 O   0  0  0  0  0  0  0  0  0  0  0  0
  -37.6272   59.0796   64.2227 C   0  0  0  0  0  0  0  0  0  0  0  0
  -36.1859   59.3056   63.8263 C   0  0  0  0  0  0  0  0  0  0  0  0
  -35.2270   58.1667   64.1108 N   0  0  0  0  0  0  0  0  0  0  0  0
  -35.9232   57.0338   64.7942 C   0  0  0  0  0  0  0  0  0  0  0  0
  -34.1226   58.6514   64.9944 C   0  0  0  0  0  0  0  0  0  0  0  0
  -34.6474   57.6664   62.8251 C   0  0  0  0  0  0  0  0  0  0  0  0
 34 33  1  0  0  0
 34 35  1  0  0  0
 34 36  1  0  0  0
 34 37  1  0  0  0
 22 23  1  0  0  0
 22 25  1  0  0  0
 22 21  1  0  0  0
 23 24  1  0  0  0
 27 26  1  0  0  0
 27 28  2  0  0  0
 27 31  1  0  0  0
 27 29  1  0  0  0
 25 26  1  0  0  0
 32 33  1  0  0  0
 32 31  1  0  0  0
 29 30  1  0  0  0
 20 21  1  0  0  0
 20  2  1  0  0  0
  1  2  2  0  0  0
  2  3  1  0  0  0
  3  4  1  0  0  0
  4  5  1  0  0  0
  5  6  1  0  0  0
  6  7  1  0  0  0
  7  8  1  0  0  0
  8  9  1  0  0  0
  9 10  1  0  0  0
 10 11  2  0  0  0
 11 12  1  0  0  0
 12 13  1  0  0  0
 13 14  1  0  0  0
 14 15  1  0  0  0
 15 16  1  0  0  0
 16 17  1  0  0  0
 17 18  1  0  0  0
 18 19  1  0  0  0
M  CHG 1  28  -1
M  END
> <minimizedAffinity>
-8.19585

> <CNNscore>
0.8378867507

> <CNNaffinity>
6.7989220619

> <CNN_VS>
5.6967267990

> <CNNaffinity_variance>
0.3243859708

$$$$
/media/chris/experiments/cd1a-new-docking/inputs/ligands/4x6c_ligand.pdb


 37 36  0  0  0  0  0  0  0  0999 V2000
  -41.2216   61.3337   65.8154 O   0  0  0  0  0  0  0  0  0  0  0  0
  -41.6394   60.4187   65.1740 C   0  0  0  0  0  0  0  0  0  0  0  0
  -42.7905   59.5572   65.5788 C   0  0  0  0  0  0  0  0  0  0  0  0
  -42.4301   58.0853   65.6510 C   0  0  0  0  0  0  0  0  0  0  0  0
  -43.6436   57.1853   65.7392 C   0  0  0  0  0  0  0  0  0  0  0  0
  -44.8769   57.7282   65.0565 C   0  0  0  0  0  0  0  0  0  0  0  0
  -46.1242   57.6528   65.8995 C   0  0  0  0  0  0  0  0  0  0  0  0
  -46.8249   58.9805   66.0079 C   0  0  0  0  0  0  0  0  0  0  0  0
  -47.9075   59.2218   64.9980 C   0  0  0  0  0  0  0  0  0  0  0  0
  -49.2140   58.6842   65.4044 C   0  0  0  0  0  0  0  0  0  0  0  0
  -50.4076   59.1012   65.0439 C   0  0  0  0  0  0  0  0  0  0  0  0
  -50.7464   60.2089   64.1150 C   0  0  0  0  0  0  0  0  0  0  0  0
  -51.1776   59.7870   62.7252 C   0  0  0  0  0  0  0  0  0  0  0  0
  -50.0443   59.2280   61.9096 C   0  0  0  0  0  0  0  0  0  0  0  0
  -50.2652   57.8258   61.4029 C   0  0  0  0  0  0  0  0  0  0  0  0
  -48.9979   57.1929   60.8717 C   0  0  0  0  0  0  0  0  0  0  0  0
  -49.1191   56.5861   59.5018 C   0  0  0  0  0  0  0  0  0  0  0  0
  -47.8927   55.8916   59.0630 C   0  0  0  0  0  0  0  0  0  0  0  0
  -47.7254   55.8708   57.6112 C   0  0  0  0  0  0  0  0  0  0  0  0
  -41.1248   60.0360   64.0054 O   0  0  0  0  0  0  0  0  0  0  0  0
  -41.0042   61.0361   62.9695 C   0  0  0  0  0  0  0  0  0  0  0  0
  -39.8374   60.6329   62.0975 C   0  0  0  0  0  0  0  0  0  0  0  0
  -40.1362   60.9324   60.7340 O   0  0  0  0  0  0  0  0  0  0  0  0
  -40.2424   61.8910   60.6293 H   0  0  0  0  0  0  0  0  0  0  0  0
  -38.5217   61.2831   62.4500 C   0  0  0  0  0  0  0  0  0  0  0  0
  -38.0719   60.7534   63.7133 O   0  0  0  0  0  0  0  0  0  0  0  0
  -37.3836   61.7207   64.7715 P   0  0  0  0  0  0  0  0  0  0  0  0
  -36.6693   62.7620   64.0056 O   0  0  0  0  0  0  0  0  0  0  0  0
  -38.4332   62.1240   65.7280 O   0  0  0  0  0  0  0  0  0  0  0  0
  -39.1112   62.6406   65.2650 H   0  0  0  0  0  0  0  0  0  0  0  0
  -36.3075   60.8828   65.5819 O   0  0  0  0  0  0  0  0  0  0  0  0
  -35.7714   59.6644   65.0146 C   0  0  0  0  0  0  0  0  0  0  0  0
  -34.5787   60.0835   64.1857 C   0  0  0  0  0  0  0  0  0  0  0  0
  -33.5459   59.0093   63.9081 N   0  0  0  0  0  0  0  0  0  0  0  0
  -33.0925   58.3572   65.1747 C   0  0  0  0  0  0  0  0  0  0  0  0
  -32.3591   59.6188   63.2332 C   0  0  0  0  0  0  0  0  0  0  0  0
  -34.1378   57.9633   63.0165 C   0  0  0  0  0  0  0  0  0  0  0  0
 34 33  1  0  0  0
 34 35  1  0  0  0
 34 36  1  0  0  0
 34 37  1  0  0  0
 22 23  1  0  0  0
 22 25  1  0  0  0
 22 21  1  0  0  0
 23 24  1  0  0  0
 27 26  1  0  0  0
 27 28  2  0  0  0
 27 31  1  0  0  0
 27 29  1  0  0  0
 25 26  1  0  0  0
 32 33  1  0  0  0
 32 31  1  0  0  0
 29 30  1  0  0  0
 20 21  1  0  0  0
 20  2  1  0  0  0
  1  2  2  0  0  0
  2  3  1  0  0  0
  3  4  1  0  0  0
  4  5  1  0  0  0
  5  6  1  0  0  0
  6  7  1  0  0  0
  7  8  1  0  0  0
  8  9  1  0  0  0
  9 10  1  0  0  0
 10 11  2  0  0  0
 11 12  1  0  0  0
 12 13  1  0  0  0
 13 14  1  0  0  0
 14 15  1  0  0  0
 15 16  1  0  0  0
 16 17  1  0  0  0
 17 18  1  0  0  0
 18 19  1  0  0  0
M  CHG 1  28  -1
M  END
> <minimizedAffinity>
-7.83368

> <CNNscore>
0.8056035042

> <CNNaffinity>
6.7000298500

> <CNN_VS>
5.3975677490

> <CNNaffinity_variance>
0.4739494324

$$$$
/media/chris/experiments/cd1a-new-docking/inputs/ligands/4x6c_ligand.pdb


 37 36  0  0  0  0  0  0  0  0999 V2000
  -43.3487   59.5774   64.2565 O   0  0  0  0  0  0  0  0  0  0  0  0
  -42.8864   59.1667   65.2766 C   0  0  0  0  0  0  0  0  0  0  0  0
  -43.1394   57.8035   65.8321 C   0  0  0  0  0  0  0  0  0  0  0  0
  -44.1604   57.0188   65.0301 C   0  0  0  0  0  0  0  0  0  0  0  0
  -45.4705   56.8335   65.7647 C   0  0  0  0  0  0  0  0  0  0  0  0
  -46.1958   58.1192   66.0856 C   0  0  0  0  0  0  0  0  0  0  0  0
  -46.9206   58.7211   64.9089 C   0  0  0  0  0  0  0  0  0  0  0  0
  -47.0432   60.2176   65.0147 C   0  0  0  0  0  0  0  0  0  0  0  0
  -48.4092   60.7728   64.7392 C   0  0  0  0  0  0  0  0  0  0  0  0
  -49.4974   59.9029   65.2082 C   0  0  0  0  0  0  0  0  0  0  0  0
  -50.6263   59.6190   64.5970 C   0  0  0  0  0  0  0  0  0  0  0  0
  -51.0859   60.0850   63.2642 C   0  0  0  0  0  0  0  0  0  0  0  0
  -50.3524   59.4948   62.0772 C   0  0  0  0  0  0  0  0  0  0  0  0
  -50.3496   57.9908   62.0849 C   0  0  0  0  0  0  0  0  0  0  0  0
  -51.0700   57.3541   60.9241 C   0  0  0  0  0  0  0  0  0  0  0  0
  -50.2617   57.3930   59.6459 C   0  0  0  0  0  0  0  0  0  0  0  0
  -49.1880   56.3458   59.5434 C   0  0  0  0  0  0  0  0  0  0  0  0
  -47.9518   56.8412   58.9066 C   0  0  0  0  0  0  0  0  0  0  0  0
  -47.9032   56.5977   57.4663 C   0  0  0  0  0  0  0  0  0  0  0  0
  -42.0826   59.8789   66.0663 O   0  0  0  0  0  0  0  0  0  0  0  0
  -40.6826   59.9397   65.7134 C   0  0  0  0  0  0  0  0  0  0  0  0
  -40.4589   61.2603   65.0132 C   0  0  0  0  0  0  0  0  0  0  0  0
  -40.2444   62.2840   65.9849 O   0  0  0  0  0  0  0  0  0  0  0  0
  -39.4338   62.0930   66.4823 H   0  0  0  0  0  0  0  0  0  0  0  0
  -39.3058   61.2797   64.0394 C   0  0  0  0  0  0  0  0  0  0  0  0
  -39.5228   60.2531   63.0506 O   0  0  0  0  0  0  0  0  0  0  0  0
  -38.8389   60.3814   61.6205 P   0  0  0  0  0  0  0  0  0  0  0  0
  -39.8973   60.7735   60.6682 O   0  0  0  0  0  0  0  0  0  0  0  0
  -37.6610   61.2555   61.7869 O   0  0  0  0  0  0  0  0  0  0  0  0
  -37.9517   62.1436   62.0470 H   0  0  0  0  0  0  0  0  0  0  0  0
  -38.3039   58.9491   61.1971 O   0  0  0  0  0  0  0  0  0  0  0  0
  -36.9502   58.5616   61.5307 C   0  0  0  0  0  0  0  0  0  0  0  0
  -37.0466   57.8006   62.8334 C   0  0  0  0  0  0  0  0  0  0  0  0
  -35.8963   57.9854   63.8031 N   0  0  0  0  0  0  0  0  0  0  0  0
  -34.5793   57.8225   63.1145 C   0  0  0  0  0  0  0  0  0  0  0  0
  -35.9937   56.9682   64.8945 C   0  0  0  0  0  0  0  0  0  0  0  0
  -35.9583   59.3566   64.3991 C   0  0  0  0  0  0  0  0  0  0  0  0
 34 33  1  0  0  0
 34 35  1  0  0  0
 34 36  1  0  0  0
 34 37  1  0  0  0
 22 23  1  0  0  0
 22 25  1  0  0  0
 22 21  1  0  0  0
 23 24  1  0  0  0
 27 26  1  0  0  0
 27 28  2  0  0  0
 27 31  1  0  0  0
 27 29  1  0  0  0
 25 26  1  0  0  0
 32 33  1  0  0  0
 32 31  1  0  0  0
 29 30  1  0  0  0
 20 21  1  0  0  0
 20  2  1  0  0  0
  1  2  2  0  0  0
  2  3  1  0  0  0
  3  4  1  0  0  0
  4  5  1  0  0  0
  5  6  1  0  0  0
  6  7  1  0  0  0
  7  8  1  0  0  0
  8  9  1  0  0  0
  9 10  1  0  0  0
 10 11  2  0  0  0
 11 12  1  0  0  0
 12 13  1  0  0  0
 13 14  1  0  0  0
 14 15  1  0  0  0
 15 16  1  0  0  0
 16 17  1  0  0  0
 17 18  1  0  0  0
 18 19  1  0  0  0
M  CHG 1  28  -1
M  END
> <minimizedAffinity>
-8.22549

> <CNNscore>
0.8017494678

> <CNNaffinity>
6.9045019150

> <CNN_VS>
5.5356807709

> <CNNaffinity_variance>
0.3895900249

$$$$
/media/chris/experiments/cd1a-new-docking/inputs/ligands/4x6c_ligand.pdb


 37 36  0  0  0  0  0  0  0  0999 V2000
  -41.6519   61.0259   62.9110 O   0  0  0  0  0  0  0  0  0  0  0  0
  -41.4820   60.7742   64.0646 C   0  0  0  0  0  0  0  0  0  0  0  0
  -42.0061   59.5555   64.7510 C   0  0  0  0  0  0  0  0  0  0  0  0
  -43.5179   59.4461   64.6882 C   0  0  0  0  0  0  0  0  0  0  0  0
  -44.0755   58.4250   65.6561 C   0  0  0  0  0  0  0  0  0  0  0  0
  -45.1885   57.5722   65.0943 C   0  0  0  0  0  0  0  0  0  0  0  0
  -46.4331   58.3468   64.7431 C   0  0  0  0  0  0  0  0  0  0  0  0
  -47.6564   57.8145   65.4400 C   0  0  0  0  0  0  0  0  0  0  0  0
  -48.9519   58.0167   64.7114 C   0  0  0  0  0  0  0  0  0  0  0  0
  -49.7928   59.0696   65.2988 C   0  0  0  0  0  0  0  0  0  0  0  0
  -50.6877   59.8205   64.6955 C   0  0  0  0  0  0  0  0  0  0  0  0
  -51.0981   59.7849   63.2690 C   0  0  0  0  0  0  0  0  0  0  0  0
  -50.1060   60.3771   62.2890 C   0  0  0  0  0  0  0  0  0  0  0  0
  -49.7566   59.4316   61.1728 C   0  0  0  0  0  0  0  0  0  0  0  0
  -50.3425   58.0498   61.3116 C   0  0  0  0  0  0  0  0  0  0  0  0
  -50.4070   57.3103   59.9935 C   0  0  0  0  0  0  0  0  0  0  0  0
  -49.0851   57.1376   59.2988 C   0  0  0  0  0  0  0  0  0  0  0  0
  -48.5582   55.7614   59.3855 C   0  0  0  0  0  0  0  0  0  0  0  0
  -47.1744   55.6401   58.9311 C   0  0  0  0  0  0  0  0  0  0  0  0
  -40.8032   61.5577   64.9026 O   0  0  0  0  0  0  0  0  0  0  0  0
  -39.6048   61.0154   65.5008 C   0  0  0  0  0  0  0  0  0  0  0  0
  -38.4303   61.6104   64.7585 C   0  0  0  0  0  0  0  0  0  0  0  0
  -37.6101   62.3397   65.6714 O   0  0  0  0  0  0  0  0  0  0  0  0
  -37.2418   61.7319   66.3317 H   0  0  0  0  0  0  0  0  0  0  0  0
  -37.5619   60.6124   64.0318 C   0  0  0  0  0  0  0  0  0  0  0  0
  -37.9484   60.5934   62.6428 O   0  0  0  0  0  0  0  0  0  0  0  0
  -37.9571   59.2160   61.8477 P   0  0  0  0  0  0  0  0  0  0  0  0
  -38.5810   58.2103   62.7310 O   0  0  0  0  0  0  0  0  0  0  0  0
  -38.5608   59.4880   60.5283 O   0  0  0  0  0  0  0  0  0  0  0  0
  -39.4850   59.7581   60.6452 H   0  0  0  0  0  0  0  0  0  0  0  0
  -36.4527   58.7808   61.5943 O   0  0  0  0  0  0  0  0  0  0  0  0
  -35.8493   57.7652   62.4300 C   0  0  0  0  0  0  0  0  0  0  0  0
  -34.3795   58.1107   62.5054 C   0  0  0  0  0  0  0  0  0  0  0  0
  -33.8598   58.5319   63.8656 N   0  0  0  0  0  0  0  0  0  0  0  0
  -33.9518   60.0135   64.0427 C   0  0  0  0  0  0  0  0  0  0  0  0
  -32.4285   58.1223   64.0030 C   0  0  0  0  0  0  0  0  0  0  0  0
  -34.6678   57.8707   64.9376 C   0  0  0  0  0  0  0  0  0  0  0  0
 34 33  1  0  0  0
 34 35  1  0  0  0
 34 36  1  0  0  0
 34 37  1  0  0  0
 22 23  1  0  0  0
 22 25  1  0  0  0
 22 21  1  0  0  0
 23 24  1  0  0  0
 27 26  1  0  0  0
 27 28  2  0  0  0
 27 31  1  0  0  0
 27 29  1  0  0  0
 25 26  1  0  0  0
 32 33  1  0  0  0
 32 31  1  0  0  0
 29 30  1  0  0  0
 20 21  1  0  0  0
 20  2  1  0  0  0
  1  2  2  0  0  0
  2  3  1  0  0  0
  3  4  1  0  0  0
  4  5  1  0  0  0
  5  6  1  0  0  0
  6  7  1  0  0  0
  7  8  1  0  0  0
  8  9  1  0  0  0
  9 10  1  0  0  0
 10 11  2  0  0  0
 11 12  1  0  0  0
 12 13  1  0  0  0
 13 14  1  0  0  0
 14 15  1  0  0  0
 15 16  1  0  0  0
 16 17  1  0  0  0
 17 18  1  0  0  0
 18 19  1  0  0  0
M  CHG 1  28  -1
M  END
> <minimizedAffinity>
-7.95896

> <CNNscore>
0.7736393809

> <CNNaffinity>
6.7133417130

> <CNN_VS>
5.1937055588

> <CNNaffinity_variance>
0.4127499163

$$$$
/media/chris/experiments/cd1a-new-docking/inputs/ligands/4x6c_ligand.pdb


 37 36  0  0  0  0  0  0  0  0999 V2000
  -42.5757   60.2512   67.0684 O   0  0  0  0  0  0  0  0  0  0  0  0
  -42.7140   59.9895   65.9128 C   0  0  0  0  0  0  0  0  0  0  0  0
  -44.0281   59.9581   65.2035 C   0  0  0  0  0  0  0  0  0  0  0  0
  -44.8518   58.7293   65.5397 C   0  0  0  0  0  0  0  0  0  0  0  0
  -45.9744   59.0205   66.5120 C   0  0  0  0  0  0  0  0  0  0  0  0
  -47.3416   59.1219   65.8778 C   0  0  0  0  0  0  0  0  0  0  0  0
  -47.9792   60.4808   66.0159 C   0  0  0  0  0  0  0  0  0  0  0  0
  -48.1602   61.1675   64.6888 C   0  0  0  0  0  0  0  0  0  0  0  0
  -48.7644   60.3249   63.6048 C   0  0  0  0  0  0  0  0  0  0  0  0
  -50.2091   60.5385   63.4375 C   0  0  0  0  0  0  0  0  0  0  0  0
  -51.0748   59.7649   62.8204 C   0  0  0  0  0  0  0  0  0  0  0  0
  -50.8228   58.4635   62.1516 C   0  0  0  0  0  0  0  0  0  0  0  0
  -50.0730   58.5390   60.8372 C   0  0  0  0  0  0  0  0  0  0  0  0
  -50.3311   57.3510   59.9518 C   0  0  0  0  0  0  0  0  0  0  0  0
  -49.2862   57.1177   58.8909 C   0  0  0  0  0  0  0  0  0  0  0  0
  -48.1143   56.3059   59.3971 C   0  0  0  0  0  0  0  0  0  0  0  0
  -46.9001   56.3258   58.5111 C   0  0  0  0  0  0  0  0  0  0  0  0
  -47.0671   57.1744   57.3149 C   0  0  0  0  0  0  0  0  0  0  0  0
  -47.4602   56.4259   56.1227 C   0  0  0  0  0  0  0  0  0  0  0  0
  -41.7065   59.6800   65.0967 O   0  0  0  0  0  0  0  0  0  0  0  0
  -40.3681   60.0008   65.5370 C   0  0  0  0  0  0  0  0  0  0  0  0
  -39.9961   61.3203   64.9006 C   0  0  0  0  0  0  0  0  0  0  0  0
  -40.0530   62.3552   65.8824 O   0  0  0  0  0  0  0  0  0  0  0  0
  -39.3921   62.1837   66.5716 H   0  0  0  0  0  0  0  0  0  0  0  0
  -38.6340   61.3549   64.2513 C   0  0  0  0  0  0  0  0  0  0  0  0
  -37.6320   61.3817   65.2878 O   0  0  0  0  0  0  0  0  0  0  0  0
  -36.3280   62.2721   65.0982 P   0  0  0  0  0  0  0  0  0  0  0  0
  -36.5070   63.0417   63.8505 O   0  0  0  0  0  0  0  0  0  0  0  0
  -36.1175   62.9972   66.3667 O   0  0  0  0  0  0  0  0  0  0  0  0
  -36.8593   63.6031   66.5197 H   0  0  0  0  0  0  0  0  0  0  0  0
  -35.0892   61.3007   64.9021 O   0  0  0  0  0  0  0  0  0  0  0  0
  -35.2192   59.8973   65.2296 C   0  0  0  0  0  0  0  0  0  0  0  0
  -34.5058   59.1472   64.1278 C   0  0  0  0  0  0  0  0  0  0  0  0
  -35.3126   58.0821   63.4122 N   0  0  0  0  0  0  0  0  0  0  0  0
  -34.4838   57.3750   62.3884 C   0  0  0  0  0  0  0  0  0  0  0  0
  -36.4806   58.7155   62.7267 C   0  0  0  0  0  0  0  0  0  0  0  0
  -35.8077   57.0772   64.4043 C   0  0  0  0  0  0  0  0  0  0  0  0
 34 33  1  0  0  0
 34 35  1  0  0  0
 34 36  1  0  0  0
 34 37  1  0  0  0
 22 23  1  0  0  0
 22 25  1  0  0  0
 22 21  1  0  0  0
 23 24  1  0  0  0
 27 26  1  0  0  0
 27 28  2  0  0  0
 27 31  1  0  0  0
 27 29  1  0  0  0
 25 26  1  0  0  0
 32 33  1  0  0  0
 32 31  1  0  0  0
 29 30  1  0  0  0
 20 21  1  0  0  0
 20  2  1  0  0  0
  1  2  2  0  0  0
  2  3  1  0  0  0
  3  4  1  0  0  0
  4  5  1  0  0  0
  5  6  1  0  0  0
  6  7  1  0  0  0
  7  8  1  0  0  0
  8  9  1  0  0  0
  9 10  1  0  0  0
 10 11  2  0  0  0
 11 12  1  0  0  0
 12 13  1  0  0  0
 13 14  1  0  0  0
 14 15  1  0  0  0
 15 16  1  0  0  0
 16 17  1  0  0  0
 17 18  1  0  0  0
 18 19  1  0  0  0
M  CHG 1  28  -1
M  END
> <minimizedAffinity>
-8.23928

> <CNNscore>
0.7706897855

> <CNNaffinity>
6.5251035690

> <CNN_VS>
5.0288305283

> <CNNaffinity_variance>
0.2700790763

$$$$
/media/chris/experiments/cd1a-new-docking/inputs/ligands/4x6c_ligand.pdb


 37 36  0  0  0  0  0  0  0  0999 V2000
  -42.4471   60.5225   64.0882 O   0  0  0  0  0  0  0  0  0  0  0  0
  -42.1121   60.0131   65.1136 C   0  0  0  0  0  0  0  0  0  0  0  0
  -42.9965   59.1609   65.9637 C   0  0  0  0  0  0  0  0  0  0  0  0
  -42.7957   57.6766   65.7229 C   0  0  0  0  0  0  0  0  0  0  0  0
  -43.9927   57.0181   65.0719 C   0  0  0  0  0  0  0  0  0  0  0  0
  -45.3107   57.3009   65.7536 C   0  0  0  0  0  0  0  0  0  0  0  0
  -46.3348   57.9488   64.8571 C   0  0  0  0  0  0  0  0  0  0  0  0
  -47.5632   58.3845   65.6100 C   0  0  0  0  0  0  0  0  0  0  0  0
  -48.5027   59.2734   64.8503 C   0  0  0  0  0  0  0  0  0  0  0  0
  -49.7390   58.5953   64.4348 C   0  0  0  0  0  0  0  0  0  0  0  0
  -50.0056   58.0401   63.2732 C   0  0  0  0  0  0  0  0  0  0  0  0
  -49.1194   57.9335   62.0866 C   0  0  0  0  0  0  0  0  0  0  0  0
  -49.6744   58.5154   60.8026 C   0  0  0  0  0  0  0  0  0  0  0  0
  -49.5227   57.5859   59.6300 C   0  0  0  0  0  0  0  0  0  0  0  0
  -48.9212   56.2447   59.9635 C   0  0  0  0  0  0  0  0  0  0  0  0
  -48.0890   55.6829   58.8319 C   0  0  0  0  0  0  0  0  0  0  0  0
  -46.7844   56.3906   58.5932 C   0  0  0  0  0  0  0  0  0  0  0  0
  -46.7001   57.0208   57.2610 C   0  0  0  0  0  0  0  0  0  0  0  0
  -47.5143   56.3504   56.2493 C   0  0  0  0  0  0  0  0  0  0  0  0
  -40.8966   60.1447   65.6448 O   0  0  0  0  0  0  0  0  0  0  0  0
  -39.7895   60.3425   64.7375 C   0  0  0  0  0  0  0  0  0  0  0  0
  -38.8281   61.2940   65.4120 C   0  0  0  0  0  0  0  0  0  0  0  0
  -38.2287   60.6482   66.5354 O   0  0  0  0  0  0  0  0  0  0  0  0
  -37.7028   59.8920   66.2310 H   0  0  0  0  0  0  0  0  0  0  0  0
  -37.7277   61.8251   64.5258 C   0  0  0  0  0  0  0  0  0  0  0  0
  -36.5366   61.9893   65.3214 O   0  0  0  0  0  0  0  0  0  0  0  0
  -35.4769   63.1085   64.9293 P   0  0  0  0  0  0  0  0  0  0  0  0
  -35.8419   63.5979   63.5845 O   0  0  0  0  0  0  0  0  0  0  0  0
  -35.4282   64.0637   66.0537 O   0  0  0  0  0  0  0  0  0  0  0  0
  -36.2889   64.5019   66.1432 H   0  0  0  0  0  0  0  0  0  0  0  0
  -34.0483   62.4256   64.8319 O   0  0  0  0  0  0  0  0  0  0  0  0
  -33.8024   61.4173   63.8236 C   0  0  0  0  0  0  0  0  0  0  0  0
  -33.6243   60.1167   64.5734 C   0  0  0  0  0  0  0  0  0  0  0  0
  -32.9162   59.0045   63.8255 N   0  0  0  0  0  0  0  0  0  0  0  0
  -33.8436   58.3193   62.8740 C   0  0  0  0  0  0  0  0  0  0  0  0
  -32.4009   57.9952   64.8007 C   0  0  0  0  0  0  0  0  0  0  0  0
  -31.7693   59.5728   63.0504 C   0  0  0  0  0  0  0  0  0  0  0  0
 34 33  1  0  0  0
 34 35  1  0  0  0
 34 36  1  0  0  0
 34 37  1  0  0  0
 22 23  1  0  0  0
 22 25  1  0  0  0
 22 21  1  0  0  0
 23 24  1  0  0  0
 27 26  1  0  0  0
 27 28  2  0  0  0
 27 31  1  0  0  0
 27 29  1  0  0  0
 25 26  1  0  0  0
 32 33  1  0  0  0
 32 31  1  0  0  0
 29 30  1  0  0  0
 20 21  1  0  0  0
 20  2  1  0  0  0
  1  2  2  0  0  0
  2  3  1  0  0  0
  3  4  1  0  0  0
  4  5  1  0  0  0
  5  6  1  0  0  0
  6  7  1  0  0  0
  7  8  1  0  0  0
  8  9  1  0  0  0
  9 10  1  0  0  0
 10 11  2  0  0  0
 11 12  1  0  0  0
 12 13  1  0  0  0
 13 14  1  0  0  0
 14 15  1  0  0  0
 15 16  1  0  0  0
 16 17  1  0  0  0
 17 18  1  0  0  0
 18 19  1  0  0  0
M  CHG 1  28  -1
M  END
> <minimizedAffinity>
-7.51509

> <CNNscore>
0.7407822013

> <CNNaffinity>
6.4001073837

> <CNN_VS>
4.7410855293

> <CNNaffinity_variance>
0.3647791743

$$$$
