/media/chris/experiments/cd1a-new-docking/inputs/ligands/4x6c_ligand.pdb


 37 36  0  0  0  0  0  0  0  0999 V2000
  -40.9473   60.8693   65.6957 O   0  0  0  0  0  0  0  0  0  0  0  0
  -41.6197   60.2457   64.9327 C   0  0  0  0  0  0  0  0  0  0  0  0
  -42.8497   59.4882   65.3126 C   0  0  0  0  0  0  0  0  0  0  0  0
  -42.5502   58.0874   65.8121 C   0  0  0  0  0  0  0  0  0  0  0  0
  -43.6222   57.0868   65.4380 C   0  0  0  0  0  0  0  0  0  0  0  0
  -44.8474   57.6927   64.7949 C   0  0  0  0  0  0  0  0  0  0  0  0
  -46.1136   57.4969   65.5890 C   0  0  0  0  0  0  0  0  0  0  0  0
  -46.9882   58.7219   65.5859 C   0  0  0  0  0  0  0  0  0  0  0  0
  -47.8481   58.8962   64.3693 C   0  0  0  0  0  0  0  0  0  0  0  0
  -49.1276   58.1770   64.4520 C   0  0  0  0  0  0  0  0  0  0  0  0
  -50.0082   57.9804   63.4957 C   0  0  0  0  0  0  0  0  0  0  0  0
  -49.9292   58.4138   62.0778 C   0  0  0  0  0  0  0  0  0  0  0  0
  -50.7873   57.6295   61.1063 C   0  0  0  0  0  0  0  0  0  0  0  0
  -50.1525   57.4926   59.7498 C   0  0  0  0  0  0  0  0  0  0  0  0
  -49.1626   56.3623   59.6291 C   0  0  0  0  0  0  0  0  0  0  0  0
  -47.9467   56.7388   58.8116 C   0  0  0  0  0  0  0  0  0  0  0  0
  -47.0861   55.5817   58.3869 C   0  0  0  0  0  0  0  0  0  0  0  0
  -47.0574   55.3843   56.9243 C   0  0  0  0  0  0  0  0  0  0  0  0
  -47.8701   56.3536   56.1920 C   0  0  0  0  0  0  0  0  0  0  0  0
  -41.3554   60.1350   63.6309 O   0  0  0  0  0  0  0  0  0  0  0  0
  -40.6903   61.2448   62.9879 C   0  0  0  0  0  0  0  0  0  0  0  0
  -39.6115   60.6632   62.1034 C   0  0  0  0  0  0  0  0  0  0  0  0
  -39.9634   60.8567   60.7335 O   0  0  0  0  0  0  0  0  0  0  0  0
  -39.9988   61.8065   60.5397 H   0  0  0  0  0  0  0  0  0  0  0  0
  -38.2300   61.2301   62.3242 C   0  0  0  0  0  0  0  0  0  0  0  0
  -37.7462   60.7747   63.6038 O   0  0  0  0  0  0  0  0  0  0  0  0
  -37.1938   61.8305   64.6570 P   0  0  0  0  0  0  0  0  0  0  0  0
  -36.5103   62.8908   63.8891 O   0  0  0  0  0  0  0  0  0  0  0  0
  -38.3255   62.1926   65.5330 O   0  0  0  0  0  0  0  0  0  0  0  0
  -39.0093   62.6395   65.0098 H   0  0  0  0  0  0  0  0  0  0  0  0
  -36.1120   61.1063   65.5637 O   0  0  0  0  0  0  0  0  0  0  0  0
  -35.5226   59.8612   65.1208 C   0  0  0  0  0  0  0  0  0  0  0  0
  -34.3467   60.2457   64.2520 C   0  0  0  0  0  0  0  0  0  0  0  0
  -33.4365   59.1138   63.8182 N   0  0  0  0  0  0  0  0  0  0  0  0
  -32.2148   59.6369   63.1336 C   0  0  0  0  0  0  0  0  0  0  0  0
  -34.1686   58.2183   62.8708 C   0  0  0  0  0  0  0  0  0  0  0  0
  -33.0125   58.3241   65.0165 C   0  0  0  0  0  0  0  0  0  0  0  0
 34 33  1  0  0  0
 34 35  1  0  0  0
 34 36  1  0  0  0
 34 37  1  0  0  0
 22 23  1  0  0  0
 22 25  1  0  0  0
 22 21  1  0  0  0
 23 24  1  0  0  0
 27 26  1  0  0  0
 27 28  2  0  0  0
 27 31  1  0  0  0
 27 29  1  0  0  0
 25 26  1  0  0  0
 32 33  1  0  0  0
 32 31  1  0  0  0
 29 30  1  0  0  0
 20 21  1  0  0  0
 20  2  1  0  0  0
  1  2  2  0  0  0
  2  3  1  0  0  0
  3  4  1  0  0  0
  4  5  1  0  0  0
  5  6  1  0  0  0
  6  7  1  0  0  0
  7  8  1  0  0  0
  8  9  1  0  0  0
  9 10  1  0  0  0
 10 11  2  0  0  0
 11 12  1  0  0  0
 12 13  1  0  0  0
 13 14  1  0  0  0
 14 15  1  0  0  0
 15 16  1  0  0  0
 16 17  1  0  0  0
 17 18  1  0  0  0
 18 19  1  0  0  0
M  CHG 1  28  -1
M  END
> <minimizedAffinity>
-8.06729

> <CNNscore>
0.8789882064

> <CNNaffinity>
6.8012795448

> <CNN_VS>
5.9782443047

> <CNNaffinity_variance>
0.4371708035

$$$$
/media/chris/experiments/cd1a-new-docking/inputs/ligands/4x6c_ligand.pdb


 37 36  0  0  0  0  0  0  0  0999 V2000
  -42.0887   57.5242   65.8929 O   0  0  0  0  0  0  0  0  0  0  0  0
  -42.6852   58.4764   65.4922 C   0  0  0  0  0  0  0  0  0  0  0  0
  -44.1664   58.5309   65.3072 C   0  0  0  0  0  0  0  0  0  0  0  0
  -44.7999   57.1564   65.2038 C   0  0  0  0  0  0  0  0  0  0  0  0
  -46.0844   57.0385   65.9953 C   0  0  0  0  0  0  0  0  0  0  0  0
  -46.7077   58.3603   66.3778 C   0  0  0  0  0  0  0  0  0  0  0  0
  -47.5197   58.9935   65.2770 C   0  0  0  0  0  0  0  0  0  0  0  0
  -48.3672   57.9916   64.5398 C   0  0  0  0  0  0  0  0  0  0  0  0
  -49.7983   57.9096   64.9816 C   0  0  0  0  0  0  0  0  0  0  0  0
  -50.3748   59.2149   65.3351 C   0  0  0  0  0  0  0  0  0  0  0  0
  -50.9215   60.1016   64.5328 C   0  0  0  0  0  0  0  0  0  0  0  0
  -51.1194   60.0057   63.0644 C   0  0  0  0  0  0  0  0  0  0  0  0
  -49.9615   60.4903   62.2162 C   0  0  0  0  0  0  0  0  0  0  0  0
  -49.6876   59.5941   61.0398 C   0  0  0  0  0  0  0  0  0  0  0  0
  -50.2762   58.2110   61.1516 C   0  0  0  0  0  0  0  0  0  0  0  0
  -49.2242   57.1252   61.1004 C   0  0  0  0  0  0  0  0  0  0  0  0
  -49.2526   56.2738   59.8618 C   0  0  0  0  0  0  0  0  0  0  0  0
  -49.0104   57.0402   58.6236 C   0  0  0  0  0  0  0  0  0  0  0  0
  -47.7001   56.7835   58.0292 C   0  0  0  0  0  0  0  0  0  0  0  0
  -42.1031   59.6245   65.1461 O   0  0  0  0  0  0  0  0  0  0  0  0
  -41.3737   60.3382   66.1691 C   0  0  0  0  0  0  0  0  0  0  0  0
  -40.2659   61.0976   65.4759 C   0  0  0  0  0  0  0  0  0  0  0  0
  -40.3532   62.4816   65.8147 O   0  0  0  0  0  0  0  0  0  0  0  0
  -40.2101   62.5909   66.7679 H   0  0  0  0  0  0  0  0  0  0  0  0
  -38.8694   60.6182   65.7899 C   0  0  0  0  0  0  0  0  0  0  0  0
  -38.0339   61.7674   66.0346 O   0  0  0  0  0  0  0  0  0  0  0  0
  -36.4720   61.6796   65.7480 P   0  0  0  0  0  0  0  0  0  0  0  0
  -36.1896   62.5776   64.6101 O   0  0  0  0  0  0  0  0  0  0  0  0
  -35.7875   61.9123   67.0351 O   0  0  0  0  0  0  0  0  0  0  0  0
  -35.9731   62.8137   67.3416 H   0  0  0  0  0  0  0  0  0  0  0  0
  -36.1336   60.1963   65.2984 O   0  0  0  0  0  0  0  0  0  0  0  0
  -35.6999   59.9394   63.9420 C   0  0  0  0  0  0  0  0  0  0  0  0
  -36.0678   58.5014   63.6551 C   0  0  0  0  0  0  0  0  0  0  0  0
  -37.2779   58.2843   62.7683 N   0  0  0  0  0  0  0  0  0  0  0  0
  -38.4189   57.7097   63.5449 C   0  0  0  0  0  0  0  0  0  0  0  0
  -36.9264   57.3384   61.6651 C   0  0  0  0  0  0  0  0  0  0  0  0
  -37.7092   59.5909   62.1800 C   0  0  0  0  0  0  0  0  0  0  0  0
 34 33  1  0  0  0
 34 35  1  0  0  0
 34 36  1  0  0  0
 34 37  1  0  0  0
 22 23  1  0  0  0
 22 25  1  0  0  0
 22 21  1  0  0  0
 23 24  1  0  0  0
 27 26  1  0  0  0
 27 28  2  0  0  0
 27 31  1  0  0  0
 27 29  1  0  0  0
 25 26  1  0  0  0
 32 33  1  0  0  0
 32 31  1  0  0  0
 29 30  1  0  0  0
 20 21  1  0  0  0
 20  2  1  0  0  0
  1  2  2  0  0  0
  2  3  1  0  0  0
  3  4  1  0  0  0
  4  5  1  0  0  0
  5  6  1  0  0  0
  6  7  1  0  0  0
  7  8  1  0  0  0
  8  9  1  0  0  0
  9 10  1  0  0  0
 10 11  2  0  0  0
 11 12  1  0  0  0
 12 13  1  0  0  0
 13 14  1  0  0  0
 14 15  1  0  0  0
 15 16  1  0  0  0
 16 17  1  0  0  0
 17 18  1  0  0  0
 18 19  1  0  0  0
M  CHG 1  28  -1
M  END
> <minimizedAffinity>
-8.10906

> <CNNscore>
0.8129245639

> <CNNaffinity>
6.9552612305

> <CNN_VS>
5.6541028023

> <CNNaffinity_variance>
0.3020943999

$$$$
/media/chris/experiments/cd1a-new-docking/inputs/ligands/4x6c_ligand.pdb


 37 36  0  0  0  0  0  0  0  0999 V2000
  -41.8613   60.1914   64.4224 O   0  0  0  0  0  0  0  0  0  0  0  0
  -41.4828   59.3652   65.1953 C   0  0  0  0  0  0  0  0  0  0  0  0
  -42.3607   58.6568   66.1743 C   0  0  0  0  0  0  0  0  0  0  0  0
  -42.8782   57.3300   65.6516 C   0  0  0  0  0  0  0  0  0  0  0  0
  -44.2508   57.4391   65.0236 C   0  0  0  0  0  0  0  0  0  0  0  0
  -45.3969   57.2007   65.9782 C   0  0  0  0  0  0  0  0  0  0  0  0
  -46.4760   58.2512   65.9109 C   0  0  0  0  0  0  0  0  0  0  0  0
  -47.1305   58.3156   64.5570 C   0  0  0  0  0  0  0  0  0  0  0  0
  -48.4374   57.5890   64.4383 C   0  0  0  0  0  0  0  0  0  0  0  0
  -49.6053   58.4813   64.4705 C   0  0  0  0  0  0  0  0  0  0  0  0
  -50.2657   58.9863   63.4519 C   0  0  0  0  0  0  0  0  0  0  0  0
  -50.0179   58.7687   62.0042 C   0  0  0  0  0  0  0  0  0  0  0  0
  -50.7660   57.6082   61.3807 C   0  0  0  0  0  0  0  0  0  0  0  0
  -50.1899   57.1897   60.0560 C   0  0  0  0  0  0  0  0  0  0  0  0
  -48.7777   56.6667   60.1206 C   0  0  0  0  0  0  0  0  0  0  0  0
  -48.0703   56.7354   58.7852 C   0  0  0  0  0  0  0  0  0  0  0  0
  -47.4424   55.4462   58.3341 C   0  0  0  0  0  0  0  0  0  0  0  0
  -47.4463   55.2795   56.8673 C   0  0  0  0  0  0  0  0  0  0  0  0
  -47.9495   56.4503   56.1517 C   0  0  0  0  0  0  0  0  0  0  0  0
  -40.2143   58.9676   65.2937 O   0  0  0  0  0  0  0  0  0  0  0  0
  -39.4875   58.7439   64.0651 C   0  0  0  0  0  0  0  0  0  0  0  0
  -38.0508   58.4671   64.4438 C   0  0  0  0  0  0  0  0  0  0  0  0
  -37.2431   58.4495   63.2668 O   0  0  0  0  0  0  0  0  0  0  0  0
  -37.2566   59.3264   62.8522 H   0  0  0  0  0  0  0  0  0  0  0  0
  -37.4473   59.4476   65.4202 C   0  0  0  0  0  0  0  0  0  0  0  0
  -36.6071   60.3640   64.6900 O   0  0  0  0  0  0  0  0  0  0  0  0
  -37.1747   61.7900   64.2735 P   0  0  0  0  0  0  0  0  0  0  0  0
  -37.7823   61.6400   62.9357 O   0  0  0  0  0  0  0  0  0  0  0  0
  -38.0114   62.2612   65.3947 O   0  0  0  0  0  0  0  0  0  0  0  0
  -38.7723   61.6692   65.5015 H   0  0  0  0  0  0  0  0  0  0  0  0
  -35.9516   62.7925   64.1473 O   0  0  0  0  0  0  0  0  0  0  0  0
  -35.0784   63.0048   65.2815 C   0  0  0  0  0  0  0  0  0  0  0  0
  -33.6692   62.9114   64.7422 C   0  0  0  0  0  0  0  0  0  0  0  0
  -33.0130   64.2215   64.3538 N   0  0  0  0  0  0  0  0  0  0  0  0
  -31.5448   64.1927   64.6343 C   0  0  0  0  0  0  0  0  0  0  0  0
  -33.6267   65.3392   65.1346 C   0  0  0  0  0  0  0  0  0  0  0  0
  -33.2162   64.4701   62.8923 C   0  0  0  0  0  0  0  0  0  0  0  0
 34 33  1  0  0  0
 34 35  1  0  0  0
 34 36  1  0  0  0
 34 37  1  0  0  0
 22 23  1  0  0  0
 22 25  1  0  0  0
 22 21  1  0  0  0
 23 24  1  0  0  0
 27 26  1  0  0  0
 27 28  2  0  0  0
 27 31  1  0  0  0
 27 29  1  0  0  0
 25 26  1  0  0  0
 32 33  1  0  0  0
 32 31  1  0  0  0
 29 30  1  0  0  0
 20 21  1  0  0  0
 20  2  1  0  0  0
  1  2  2  0  0  0
  2  3  1  0  0  0
  3  4  1  0  0  0
  4  5  1  0  0  0
  5  6  1  0  0  0
  6  7  1  0  0  0
  7  8  1  0  0  0
  8  9  1  0  0  0
  9 10  1  0  0  0
 10 11  2  0  0  0
 11 12  1  0  0  0
 12 13  1  0  0  0
 13 14  1  0  0  0
 14 15  1  0  0  0
 15 16  1  0  0  0
 16 17  1  0  0  0
 17 18  1  0  0  0
 18 19  1  0  0  0
M  CHG 1  28  -1
M  END
> <minimizedAffinity>
-7.71044

> <CNNscore>
0.8114312887

> <CNNaffinity>
6.4756836891

> <CNN_VS>
5.2545723915

> <CNNaffinity_variance>
0.6612529159

$$$$
/media/chris/experiments/cd1a-new-docking/inputs/ligands/4x6c_ligand.pdb


 37 36  0  0  0  0  0  0  0  0999 V2000
  -42.2502   59.9789   66.8799 O   0  0  0  0  0  0  0  0  0  0  0  0
  -42.2501   59.6686   65.7280 C   0  0  0  0  0  0  0  0  0  0  0  0
  -43.4785   59.3764   64.9301 C   0  0  0  0  0  0  0  0  0  0  0  0
  -44.6513   58.9422   65.7888 C   0  0  0  0  0  0  0  0  0  0  0  0
  -45.9567   59.5844   65.3716 C   0  0  0  0  0  0  0  0  0  0  0  0
  -47.1902   58.7999   65.7520 C   0  0  0  0  0  0  0  0  0  0  0  0
  -47.9435   58.2375   64.5735 C   0  0  0  0  0  0  0  0  0  0  0  0
  -49.4355   58.3305   64.7486 C   0  0  0  0  0  0  0  0  0  0  0  0
  -50.0148   59.7078   64.6169 C   0  0  0  0  0  0  0  0  0  0  0  0
  -51.0883   59.7953   63.6163 C   0  0  0  0  0  0  0  0  0  0  0  0
  -50.9710   59.8811   62.3096 C   0  0  0  0  0  0  0  0  0  0  0  0
  -49.7245   59.8889   61.5028 C   0  0  0  0  0  0  0  0  0  0  0  0
  -49.6144   58.7952   60.4603 C   0  0  0  0  0  0  0  0  0  0  0  0
  -49.7682   57.4178   61.0443 C   0  0  0  0  0  0  0  0  0  0  0  0
  -49.2439   56.3033   60.1754 C   0  0  0  0  0  0  0  0  0  0  0  0
  -48.1350   56.7580   59.2524 C   0  0  0  0  0  0  0  0  0  0  0  0
  -47.3057   55.6502   58.6651 C   0  0  0  0  0  0  0  0  0  0  0  0
  -47.6785   55.3186   57.2758 C   0  0  0  0  0  0  0  0  0  0  0  0
  -47.4130   56.4006   56.3298 C   0  0  0  0  0  0  0  0  0  0  0  0
  -41.1439   59.5326   64.9968 O   0  0  0  0  0  0  0  0  0  0  0  0
  -39.8971   59.9652   65.5852 C   0  0  0  0  0  0  0  0  0  0  0  0
  -39.5276   61.2752   64.9284 C   0  0  0  0  0  0  0  0  0  0  0  0
  -39.8804   62.3565   65.7912 O   0  0  0  0  0  0  0  0  0  0  0  0
  -39.3617   62.3002   66.6089 H   0  0  0  0  0  0  0  0  0  0  0  0
  -38.0705   61.4165   64.5602 C   0  0  0  0  0  0  0  0  0  0  0  0
  -37.4931   62.4638   65.3656 O   0  0  0  0  0  0  0  0  0  0  0  0
  -36.0589   62.2529   66.0196 P   0  0  0  0  0  0  0  0  0  0  0  0
  -36.2725   61.6161   67.3349 O   0  0  0  0  0  0  0  0  0  0  0  0
  -35.2274   61.5637   65.0133 O   0  0  0  0  0  0  0  0  0  0  0  0
  -35.5953   60.6835   64.8378 H   0  0  0  0  0  0  0  0  0  0  0  0
  -35.4116   63.6804   66.2649 O   0  0  0  0  0  0  0  0  0  0  0  0
  -34.0309   63.9140   65.9001 C   0  0  0  0  0  0  0  0  0  0  0  0
  -34.0457   65.0978   64.9601 C   0  0  0  0  0  0  0  0  0  0  0  0
  -33.8481   64.7874   63.4895 N   0  0  0  0  0  0  0  0  0  0  0  0
  -35.1447   64.4342   62.8344 C   0  0  0  0  0  0  0  0  0  0  0  0
  -32.9091   63.6330   63.3438 C   0  0  0  0  0  0  0  0  0  0  0  0
  -33.2723   65.9828   62.7977 C   0  0  0  0  0  0  0  0  0  0  0  0
 34 33  1  0  0  0
 34 35  1  0  0  0
 34 36  1  0  0  0
 34 37  1  0  0  0
 22 23  1  0  0  0
 22 25  1  0  0  0
 22 21  1  0  0  0
 23 24  1  0  0  0
 27 26  1  0  0  0
 27 28  2  0  0  0
 27 31  1  0  0  0
 27 29  1  0  0  0
 25 26  1  0  0  0
 32 33  1  0  0  0
 32 31  1  0  0  0
 29 30  1  0  0  0
 20 21  1  0  0  0
 20  2  1  0  0  0
  1  2  2  0  0  0
  2  3  1  0  0  0
  3  4  1  0  0  0
  4  5  1  0  0  0
  5  6  1  0  0  0
  6  7  1  0  0  0
  7  8  1  0  0  0
  8  9  1  0  0  0
  9 10  1  0  0  0
 10 11  2  0  0  0
 11 12  1  0  0  0
 12 13  1  0  0  0
 13 14  1  0  0  0
 14 15  1  0  0  0
 15 16  1  0  0  0
 16 17  1  0  0  0
 17 18  1  0  0  0
 18 19  1  0  0  0
M  CHG 1  28  -1
M  END
> <minimizedAffinity>
-8.11149

> <CNNscore>
0.8058068156

> <CNNaffinity>
6.4373116493

> <CNN_VS>
5.1872296333

> <CNNaffinity_variance>
0.5500880480

$$$$
/media/chris/experiments/cd1a-new-docking/inputs/ligands/4x6c_ligand.pdb


 37 36  0  0  0  0  0  0  0  0999 V2000
  -42.2816   58.2590   65.5010 O   0  0  0  0  0  0  0  0  0  0  0  0
  -42.9543   59.2440   65.4797 C   0  0  0  0  0  0  0  0  0  0  0  0
  -44.3883   59.2805   65.0633 C   0  0  0  0  0  0  0  0  0  0  0  0
  -44.8814   57.9504   64.5255 C   0  0  0  0  0  0  0  0  0  0  0  0
  -45.2907   56.9879   65.6193 C   0  0  0  0  0  0  0  0  0  0  0  0
  -46.7784   56.9245   65.8732 C   0  0  0  0  0  0  0  0  0  0  0  0
  -47.6008   57.7070   64.8814 C   0  0  0  0  0  0  0  0  0  0  0  0
  -48.4906   58.7219   65.5475 C   0  0  0  0  0  0  0  0  0  0  0  0
  -49.9580   58.5675   65.2776 C   0  0  0  0  0  0  0  0  0  0  0  0
  -50.6255   59.8341   64.9436 C   0  0  0  0  0  0  0  0  0  0  0  0
  -51.1268   60.2033   63.7855 C   0  0  0  0  0  0  0  0  0  0  0  0
  -51.1694   59.4284   62.5197 C   0  0  0  0  0  0  0  0  0  0  0  0
  -49.8794   59.4029   61.7257 C   0  0  0  0  0  0  0  0  0  0  0  0
  -49.3262   58.0142   61.5602 C   0  0  0  0  0  0  0  0  0  0  0  0
  -50.1605   57.1028   60.6970 C   0  0  0  0  0  0  0  0  0  0  0  0
  -50.0200   57.4090   59.2222 C   0  0  0  0  0  0  0  0  0  0  0  0
  -48.6343   57.2302   58.6675 C   0  0  0  0  0  0  0  0  0  0  0  0
  -48.1550   55.8358   58.7385 C   0  0  0  0  0  0  0  0  0  0  0  0
  -47.5146   55.3789   57.5068 C   0  0  0  0  0  0  0  0  0  0  0  0
  -42.5092   60.4535   65.8197 O   0  0  0  0  0  0  0  0  0  0  0  0
  -41.1984   60.5378   66.4218 C   0  0  0  0  0  0  0  0  0  0  0  0
  -40.2257   60.8878   65.3192 C   0  0  0  0  0  0  0  0  0  0  0  0
  -39.5280   62.0851   65.6623 O   0  0  0  0  0  0  0  0  0  0  0  0
  -38.9990   61.9336   66.4611 H   0  0  0  0  0  0  0  0  0  0  0  0
  -39.2082   59.8187   65.0019 C   0  0  0  0  0  0  0  0  0  0  0  0
  -38.9821   59.8085   63.5780 O   0  0  0  0  0  0  0  0  0  0  0  0
  -37.6387   60.4244   62.9906 P   0  0  0  0  0  0  0  0  0  0  0  0
  -36.6818   59.3098   62.8384 O   0  0  0  0  0  0  0  0  0  0  0  0
  -38.0150   61.2165   61.8031 O   0  0  0  0  0  0  0  0  0  0  0  0
  -38.3818   60.6280   61.1248 H   0  0  0  0  0  0  0  0  0  0  0  0
  -37.0479   61.4356   64.0608 O   0  0  0  0  0  0  0  0  0  0  0  0
  -35.6172   61.5088   64.2651 C   0  0  0  0  0  0  0  0  0  0  0  0
  -35.3588   62.8532   64.9062 C   0  0  0  0  0  0  0  0  0  0  0  0
  -34.5655   63.8469   64.0808 N   0  0  0  0  0  0  0  0  0  0  0  0
  -35.2882   64.1990   62.8204 C   0  0  0  0  0  0  0  0  0  0  0  0
  -33.2405   63.2544   63.7223 C   0  0  0  0  0  0  0  0  0  0  0  0
  -34.3491   65.0975   64.8737 C   0  0  0  0  0  0  0  0  0  0  0  0
 34 33  1  0  0  0
 34 35  1  0  0  0
 34 36  1  0  0  0
 34 37  1  0  0  0
 22 23  1  0  0  0
 22 25  1  0  0  0
 22 21  1  0  0  0
 23 24  1  0  0  0
 27 26  1  0  0  0
 27 28  2  0  0  0
 27 31  1  0  0  0
 27 29  1  0  0  0
 25 26  1  0  0  0
 32 33  1  0  0  0
 32 31  1  0  0  0
 29 30  1  0  0  0
 20 21  1  0  0  0
 20  2  1  0  0  0
  1  2  2  0  0  0
  2  3  1  0  0  0
  3  4  1  0  0  0
  4  5  1  0  0  0
  5  6  1  0  0  0
  6  7  1  0  0  0
  7  8  1  0  0  0
  8  9  1  0  0  0
  9 10  1  0  0  0
 10 11  2  0  0  0
 11 12  1  0  0  0
 12 13  1  0  0  0
 13 14  1  0  0  0
 14 15  1  0  0  0
 15 16  1  0  0  0
 16 17  1  0  0  0
 17 18  1  0  0  0
 18 19  1  0  0  0
M  CHG 1  28  -1
M  END
> <minimizedAffinity>
-8.14040

> <CNNscore>
0.7805340290

> <CNNaffinity>
6.5462889671

> <CNN_VS>
5.1096014977

> <CNNaffinity_variance>
0.2731218040

$$$$
/media/chris/experiments/cd1a-new-docking/inputs/ligands/4x6c_ligand.pdb


 37 36  0  0  0  0  0  0  0  0999 V2000
  -42.6447   57.1630   66.2145 O   0  0  0  0  0  0  0  0  0  0  0  0
  -43.2595   57.8547   65.4618 C   0  0  0  0  0  0  0  0  0  0  0  0
  -44.6224   57.5357   64.9406 C   0  0  0  0  0  0  0  0  0  0  0  0
  -45.6553   57.3841   66.0413 C   0  0  0  0  0  0  0  0  0  0  0  0
  -46.6950   58.4838   66.0293 C   0  0  0  0  0  0  0  0  0  0  0  0
  -47.4537   58.6140   64.7296 C   0  0  0  0  0  0  0  0  0  0  0  0
  -48.5730   57.6165   64.5737 C   0  0  0  0  0  0  0  0  0  0  0  0
  -49.8840   58.1383   65.0976 C   0  0  0  0  0  0  0  0  0  0  0  0
  -50.1133   59.6087   64.9096 C   0  0  0  0  0  0  0  0  0  0  0  0
  -51.1179   59.9150   63.8809 C   0  0  0  0  0  0  0  0  0  0  0  0
  -50.9143   60.2510   62.6262 C   0  0  0  0  0  0  0  0  0  0  0  0
  -49.6176   60.3863   61.9156 C   0  0  0  0  0  0  0  0  0  0  0  0
  -49.4814   59.5730   60.6447 C   0  0  0  0  0  0  0  0  0  0  0  0
  -49.6525   58.0971   60.8779 C   0  0  0  0  0  0  0  0  0  0  0  0
  -49.7771   57.2717   59.6228 C   0  0  0  0  0  0  0  0  0  0  0  0
  -48.8480   56.0780   59.6171 C   0  0  0  0  0  0  0  0  0  0  0  0
  -47.5053   56.3236   58.9871 C   0  0  0  0  0  0  0  0  0  0  0  0
  -47.5949   56.9434   57.6503 C   0  0  0  0  0  0  0  0  0  0  0  0
  -47.7738   55.9734   56.5718 C   0  0  0  0  0  0  0  0  0  0  0  0
  -42.8043   59.0095   64.9759 O   0  0  0  0  0  0  0  0  0  0  0  0
  -42.3318   59.9927   65.9235 C   0  0  0  0  0  0  0  0  0  0  0  0
  -40.8331   60.0886   65.7530 C   0  0  0  0  0  0  0  0  0  0  0  0
  -40.3800   59.0237   64.9172 O   0  0  0  0  0  0  0  0  0  0  0  0
  -40.7664   59.1199   64.0327 H   0  0  0  0  0  0  0  0  0  0  0  0
  -40.3383   61.3917   65.1734 C   0  0  0  0  0  0  0  0  0  0  0  0
  -39.1734   61.8098   65.9130 O   0  0  0  0  0  0  0  0  0  0  0  0
  -37.7237   61.4588   65.3611 P   0  0  0  0  0  0  0  0  0  0  0  0
  -37.2288   60.3092   66.1451 O   0  0  0  0  0  0  0  0  0  0  0  0
  -37.8436   61.3317   63.8953 O   0  0  0  0  0  0  0  0  0  0  0  0
  -38.4213   60.5823   63.6819 H   0  0  0  0  0  0  0  0  0  0  0  0
  -36.7717   62.6950   65.6484 O   0  0  0  0  0  0  0  0  0  0  0  0
  -35.3383   62.5016   65.6909 C   0  0  0  0  0  0  0  0  0  0  0  0
  -34.8569   62.6587   64.2665 C   0  0  0  0  0  0  0  0  0  0  0  0
  -34.3784   64.0415   63.8704 N   0  0  0  0  0  0  0  0  0  0  0  0
  -33.0113   63.9865   63.2677 C   0  0  0  0  0  0  0  0  0  0  0  0
  -34.3327   64.9203   65.0791 C   0  0  0  0  0  0  0  0  0  0  0  0
  -35.3203   64.6296   62.8674 C   0  0  0  0  0  0  0  0  0  0  0  0
 34 33  1  0  0  0
 34 35  1  0  0  0
 34 36  1  0  0  0
 34 37  1  0  0  0
 22 23  1  0  0  0
 22 25  1  0  0  0
 22 21  1  0  0  0
 23 24  1  0  0  0
 27 26  1  0  0  0
 27 28  2  0  0  0
 27 31  1  0  0  0
 27 29  1  0  0  0
 25 26  1  0  0  0
 32 33  1  0  0  0
 32 31  1  0  0  0
 29 30  1  0  0  0
 20 21  1  0  0  0
 20  2  1  0  0  0
  1  2  2  0  0  0
  2  3  1  0  0  0
  3  4  1  0  0  0
  4  5  1  0  0  0
  5  6  1  0  0  0
  6  7  1  0  0  0
  7  8  1  0  0  0
  8  9  1  0  0  0
  9 10  1  0  0  0
 10 11  2  0  0  0
 11 12  1  0  0  0
 12 13  1  0  0  0
 13 14  1  0  0  0
 14 15  1  0  0  0
 15 16  1  0  0  0
 16 17  1  0  0  0
 17 18  1  0  0  0
 18 19  1  0  0  0
M  CHG 1  28  -1
M  END
> <minimizedAffinity>
-8.01754

> <CNNscore>
0.7623330951

> <CNNaffinity>
6.4362053871

> <CNN_VS>
4.9065322876

> <CNNaffinity_variance>
0.3744321764

$$$$
/media/chris/experiments/cd1a-new-docking/inputs/ligands/4x6c_ligand.pdb


 37 36  0  0  0  0  0  0  0  0999 V2000
  -42.0052   58.1295   65.7479 O   0  0  0  0  0  0  0  0  0  0  0  0
  -42.6805   59.0564   65.4194 C   0  0  0  0  0  0  0  0  0  0  0  0
  -44.0652   58.9424   64.8710 C   0  0  0  0  0  0  0  0  0  0  0  0
  -44.9012   57.9001   65.5893 C   0  0  0  0  0  0  0  0  0  0  0  0
  -46.1150   58.4888   66.2753 C   0  0  0  0  0  0  0  0  0  0  0  0
  -46.6263   59.7675   65.6544 C   0  0  0  0  0  0  0  0  0  0  0  0
  -47.7593   59.5629   64.6813 C   0  0  0  0  0  0  0  0  0  0  0  0
  -48.4084   58.2133   64.8315 C   0  0  0  0  0  0  0  0  0  0  0  0
  -49.8655   58.2354   65.1867 C   0  0  0  0  0  0  0  0  0  0  0  0
  -50.4460   59.5861   65.1825 C   0  0  0  0  0  0  0  0  0  0  0  0
  -50.9889   60.2300   64.1729 C   0  0  0  0  0  0  0  0  0  0  0  0
  -51.1777   59.7520   62.7799 C   0  0  0  0  0  0  0  0  0  0  0  0
  -50.0445   60.0624   61.8236 C   0  0  0  0  0  0  0  0  0  0  0  0
  -49.4389   58.8256   61.2189 C   0  0  0  0  0  0  0  0  0  0  0  0
  -50.3693   57.6422   61.1419 C   0  0  0  0  0  0  0  0  0  0  0  0
  -49.8569   56.5586   60.2191 C   0  0  0  0  0  0  0  0  0  0  0  0
  -48.4925   56.8119   59.6410 C   0  0  0  0  0  0  0  0  0  0  0  0
  -48.4683   56.7652   58.1658 C   0  0  0  0  0  0  0  0  0  0  0  0
  -47.2064   57.2274   57.5912 C   0  0  0  0  0  0  0  0  0  0  0  0
  -42.2823   60.3265   65.4914 O   0  0  0  0  0  0  0  0  0  0  0  0
  -41.5561   60.8635   64.3635 C   0  0  0  0  0  0  0  0  0  0  0  0
  -40.2783   61.4631   64.9036 C   0  0  0  0  0  0  0  0  0  0  0  0
  -40.5895   62.3855   65.9478 O   0  0  0  0  0  0  0  0  0  0  0  0
  -41.0064   61.9116   66.6844 H   0  0  0  0  0  0  0  0  0  0  0  0
  -39.2782   60.4644   65.4337 C   0  0  0  0  0  0  0  0  0  0  0  0
  -38.2441   61.1803   66.1387 O   0  0  0  0  0  0  0  0  0  0  0  0
  -36.8624   61.4839   65.4121 P   0  0  0  0  0  0  0  0  0  0  0  0
  -36.5069   60.2781   64.6370 O   0  0  0  0  0  0  0  0  0  0  0  0
  -37.0239   62.7707   64.7069 O   0  0  0  0  0  0  0  0  0  0  0  0
  -37.6978   62.6780   64.0153 H   0  0  0  0  0  0  0  0  0  0  0  0
  -35.7530   61.6958   66.5263 O   0  0  0  0  0  0  0  0  0  0  0  0
  -35.2936   63.0326   66.8359 C   0  0  0  0  0  0  0  0  0  0  0  0
  -33.8213   63.0540   66.4937 C   0  0  0  0  0  0  0  0  0  0  0  0
  -33.4295   63.8629   65.2730 N   0  0  0  0  0  0  0  0  0  0  0  0
  -32.0712   64.4651   65.4388 C   0  0  0  0  0  0  0  0  0  0  0  0
  -34.4184   64.9648   65.0646 C   0  0  0  0  0  0  0  0  0  0  0  0
  -33.4161   62.9766   64.0674 C   0  0  0  0  0  0  0  0  0  0  0  0
 34 33  1  0  0  0
 34 35  1  0  0  0
 34 36  1  0  0  0
 34 37  1  0  0  0
 22 23  1  0  0  0
 22 25  1  0  0  0
 22 21  1  0  0  0
 23 24  1  0  0  0
 27 26  1  0  0  0
 27 28  2  0  0  0
 27 31  1  0  0  0
 27 29  1  0  0  0
 25 26  1  0  0  0
 32 33  1  0  0  0
 32 31  1  0  0  0
 29 30  1  0  0  0
 20 21  1  0  0  0
 20  2  1  0  0  0
  1  2  2  0  0  0
  2  3  1  0  0  0
  3  4  1  0  0  0
  4  5  1  0  0  0
  5  6  1  0  0  0
  6  7  1  0  0  0
  7  8  1  0  0  0
  8  9  1  0  0  0
  9 10  1  0  0  0
 10 11  2  0  0  0
 11 12  1  0  0  0
 12 13  1  0  0  0
 13 14  1  0  0  0
 14 15  1  0  0  0
 15 16  1  0  0  0
 16 17  1  0  0  0
 17 18  1  0  0  0
 18 19  1  0  0  0
M  CHG 1  28  -1
M  END
> <minimizedAffinity>
-8.13515

> <CNNscore>
0.7545977831

> <CNNaffinity>
6.3970384598

> <CNN_VS>
4.8271908760

> <CNNaffinity_variance>
0.2702142298

$$$$
/media/chris/experiments/cd1a-new-docking/inputs/ligands/4x6c_ligand.pdb


 37 36  0  0  0  0  0  0  0  0999 V2000
  -42.1214   58.0999   66.4371 O   0  0  0  0  0  0  0  0  0  0  0  0
  -42.1104   59.2160   66.0163 C   0  0  0  0  0  0  0  0  0  0  0  0
  -43.2123   59.8297   65.2160 C   0  0  0  0  0  0  0  0  0  0  0  0
  -44.2097   58.8081   64.7032 C   0  0  0  0  0  0  0  0  0  0  0  0
  -45.5415   58.8742   65.4189 C   0  0  0  0  0  0  0  0  0  0  0  0
  -46.0776   57.5357   65.8691 C   0  0  0  0  0  0  0  0  0  0  0  0
  -47.4817   57.2514   65.4002 C   0  0  0  0  0  0  0  0  0  0  0  0
  -48.2083   58.4990   64.9745 C   0  0  0  0  0  0  0  0  0  0  0  0
  -49.6977   58.4684   65.1498 C   0  0  0  0  0  0  0  0  0  0  0  0
  -50.3597   59.7119   64.7296 C   0  0  0  0  0  0  0  0  0  0  0  0
  -50.9266   59.9754   63.5729 C   0  0  0  0  0  0  0  0  0  0  0  0
  -51.0660   59.0779   62.3983 C   0  0  0  0  0  0  0  0  0  0  0  0
  -49.8260   58.9265   61.5412 C   0  0  0  0  0  0  0  0  0  0  0  0
  -49.4740   57.4884   61.2769 C   0  0  0  0  0  0  0  0  0  0  0  0
  -49.1945   57.1640   59.8318 C   0  0  0  0  0  0  0  0  0  0  0  0
  -48.6259   55.7744   59.6470 C   0  0  0  0  0  0  0  0  0  0  0  0
  -47.4197   55.6973   58.7532 C   0  0  0  0  0  0  0  0  0  0  0  0
  -47.3077   56.8419   57.8278 C   0  0  0  0  0  0  0  0  0  0  0  0
  -47.5310   56.4812   56.4291 C   0  0  0  0  0  0  0  0  0  0  0  0
  -41.1013   60.0676   66.1992 O   0  0  0  0  0  0  0  0  0  0  0  0
  -39.9543   59.9403   65.3297 C   0  0  0  0  0  0  0  0  0  0  0  0
  -39.5600   61.3372   64.9083 C   0  0  0  0  0  0  0  0  0  0  0  0
  -39.9379   62.2656   65.9249 O   0  0  0  0  0  0  0  0  0  0  0  0
  -39.4462   62.0721   66.7384 H   0  0  0  0  0  0  0  0  0  0  0  0
  -38.0913   61.5251   64.6146 C   0  0  0  0  0  0  0  0  0  0  0  0
  -37.5065   62.3033   65.6782 O   0  0  0  0  0  0  0  0  0  0  0  0
  -35.9571   62.1521   66.0030 P   0  0  0  0  0  0  0  0  0  0  0  0
  -35.2648   63.2778   65.3437 O   0  0  0  0  0  0  0  0  0  0  0  0
  -35.8405   61.9935   67.4660 O   0  0  0  0  0  0  0  0  0  0  0  0
  -36.1483   62.8022   67.9044 H   0  0  0  0  0  0  0  0  0  0  0  0
  -35.4417   60.8048   65.3426 O   0  0  0  0  0  0  0  0  0  0  0  0
  -34.2185   60.8070   64.5696 C   0  0  0  0  0  0  0  0  0  0  0  0
  -34.1481   59.4524   63.9021 C   0  0  0  0  0  0  0  0  0  0  0  0
  -32.7895   59.0363   63.3740 N   0  0  0  0  0  0  0  0  0  0  0  0
  -32.0717   58.1686   64.3573 C   0  0  0  0  0  0  0  0  0  0  0  0
  -31.9596   60.2526   63.1149 C   0  0  0  0  0  0  0  0  0  0  0  0
  -32.9599   58.2736   62.0978 C   0  0  0  0  0  0  0  0  0  0  0  0
 34 33  1  0  0  0
 34 35  1  0  0  0
 34 36  1  0  0  0
 34 37  1  0  0  0
 22 23  1  0  0  0
 22 25  1  0  0  0
 22 21  1  0  0  0
 23 24  1  0  0  0
 27 26  1  0  0  0
 27 28  2  0  0  0
 27 31  1  0  0  0
 27 29  1  0  0  0
 25 26  1  0  0  0
 32 33  1  0  0  0
 32 31  1  0  0  0
 29 30  1  0  0  0
 20 21  1  0  0  0
 20  2  1  0  0  0
  1  2  2  0  0  0
  2  3  1  0  0  0
  3  4  1  0  0  0
  4  5  1  0  0  0
  5  6  1  0  0  0
  6  7  1  0  0  0
  7  8  1  0  0  0
  8  9  1  0  0  0
  9 10  1  0  0  0
 10 11  2  0  0  0
 11 12  1  0  0  0
 12 13  1  0  0  0
 13 14  1  0  0  0
 14 15  1  0  0  0
 15 16  1  0  0  0
 16 17  1  0  0  0
 17 18  1  0  0  0
 18 19  1  0  0  0
M  CHG 1  28  -1
M  END
> <minimizedAffinity>
-8.22725

> <CNNscore>
0.7431303859

> <CNNaffinity>
6.4937644005

> <CNN_VS>
4.8257136345

> <CNNaffinity_variance>
0.4710534215

$$$$
/media/chris/experiments/cd1a-new-docking/inputs/ligands/4x6c_ligand.pdb


 37 36  0  0  0  0  0  0  0  0999 V2000
  -42.3599   57.6775   65.7699 O   0  0  0  0  0  0  0  0  0  0  0  0
  -42.5280   58.8291   65.5081 C   0  0  0  0  0  0  0  0  0  0  0  0
  -43.8627   59.4966   65.4451 C   0  0  0  0  0  0  0  0  0  0  0  0
  -44.9880   58.5367   65.1078 C   0  0  0  0  0  0  0  0  0  0  0  0
  -46.3560   59.0927   65.4394 C   0  0  0  0  0  0  0  0  0  0  0  0
  -47.4583   58.6384   64.5118 C   0  0  0  0  0  0  0  0  0  0  0  0
  -48.4099   57.6484   65.1335 C   0  0  0  0  0  0  0  0  0  0  0  0
  -49.8463   58.0832   65.0191 C   0  0  0  0  0  0  0  0  0  0  0  0
  -50.0709   59.5662   65.0030 C   0  0  0  0  0  0  0  0  0  0  0  0
  -51.0629   59.9946   64.0062 C   0  0  0  0  0  0  0  0  0  0  0  0
  -50.8665   60.2676   62.7352 C   0  0  0  0  0  0  0  0  0  0  0  0
  -49.5961   60.1924   61.9703 C   0  0  0  0  0  0  0  0  0  0  0  0
  -49.6987   59.5690   60.5933 C   0  0  0  0  0  0  0  0  0  0  0  0
  -49.8435   58.0728   60.6420 C   0  0  0  0  0  0  0  0  0  0  0  0
  -49.4162   57.3577   59.3858 C   0  0  0  0  0  0  0  0  0  0  0  0
  -48.5809   56.1292   59.6712 C   0  0  0  0  0  0  0  0  0  0  0  0
  -47.5910   55.7730   58.5975 C   0  0  0  0  0  0  0  0  0  0  0  0
  -47.3449   56.8737   57.6451 C   0  0  0  0  0  0  0  0  0  0  0  0
  -47.5392   56.4874   56.2490 C   0  0  0  0  0  0  0  0  0  0  0  0
  -41.5392   59.6777   65.2268 O   0  0  0  0  0  0  0  0  0  0  0  0
  -41.8511   60.8118   64.3876 C   0  0  0  0  0  0  0  0  0  0  0  0
  -40.7295   61.8106   64.5570 C   0  0  0  0  0  0  0  0  0  0  0  0
  -40.5693   62.1162   65.9422 O   0  0  0  0  0  0  0  0  0  0  0  0
  -40.3027   61.3159   66.4212 H   0  0  0  0  0  0  0  0  0  0  0  0
  -39.3935   61.3697   64.0095 C   0  0  0  0  0  0  0  0  0  0  0  0
  -38.4557   61.2848   65.1013 O   0  0  0  0  0  0  0  0  0  0  0  0
  -36.9549   61.7659   64.8881 P   0  0  0  0  0  0  0  0  0  0  0  0
  -36.8722   62.3360   63.5282 O   0  0  0  0  0  0  0  0  0  0  0  0
  -36.6093   62.6140   66.0459 O   0  0  0  0  0  0  0  0  0  0  0  0
  -37.1681   63.4069   66.0441 H   0  0  0  0  0  0  0  0  0  0  0  0
  -36.0132   60.4903   64.9435 O   0  0  0  0  0  0  0  0  0  0  0  0
  -36.5882   59.1684   64.8180 C   0  0  0  0  0  0  0  0  0  0  0  0
  -36.2185   58.6858   63.4339 C   0  0  0  0  0  0  0  0  0  0  0  0
  -37.3595   58.1761   62.5758 N   0  0  0  0  0  0  0  0  0  0  0  0
  -36.9618   56.9452   61.8262 C   0  0  0  0  0  0  0  0  0  0  0  0
  -37.7535   59.2292   61.5905 C   0  0  0  0  0  0  0  0  0  0  0  0
  -38.5329   57.8489   63.4449 C   0  0  0  0  0  0  0  0  0  0  0  0
 34 33  1  0  0  0
 34 35  1  0  0  0
 34 36  1  0  0  0
 34 37  1  0  0  0
 22 23  1  0  0  0
 22 25  1  0  0  0
 22 21  1  0  0  0
 23 24  1  0  0  0
 27 26  1  0  0  0
 27 28  2  0  0  0
 27 31  1  0  0  0
 27 29  1  0  0  0
 25 26  1  0  0  0
 32 33  1  0  0  0
 32 31  1  0  0  0
 29 30  1  0  0  0
 20 21  1  0  0  0
 20  2  1  0  0  0
  1  2  2  0  0  0
  2  3  1  0  0  0
  3  4  1  0  0  0
  4  5  1  0  0  0
  5  6  1  0  0  0
  6  7  1  0  0  0
  7  8  1  0  0  0
  8  9  1  0  0  0
  9 10  1  0  0  0
 10 11  2  0  0  0
 11 12  1  0  0  0
 12 13  1  0  0  0
 13 14  1  0  0  0
 14 15  1  0  0  0
 15 16  1  0  0  0
 16 17  1  0  0  0
 17 18  1  0  0  0
 18 19  1  0  0  0
M  CHG 1  28  -1
M  END
> <minimizedAffinity>
-8.20782

> <CNNscore>
0.7267760038

> <CNNaffinity>
6.8944826126

> <CNN_VS>
5.0107445717

> <CNNaffinity_variance>
0.3615300655

$$$$
