/media/chris/experiments/cd1a-new-docking/inputs/ligands/4x6c_ligand.pdb


 37 36  0  0  0  0  0  0  0  0999 V2000
  -42.5112   57.5039   66.1572 O   0  0  0  0  0  0  0  0  0  0  0  0
  -42.9010   58.4652   65.5684 C   0  0  0  0  0  0  0  0  0  0  0  0
  -44.3274   58.7106   65.1989 C   0  0  0  0  0  0  0  0  0  0  0  0
  -45.0304   57.4636   64.6966 C   0  0  0  0  0  0  0  0  0  0  0  0
  -46.1425   57.0040   65.6145 C   0  0  0  0  0  0  0  0  0  0  0  0
  -47.3183   57.9489   65.6956 C   0  0  0  0  0  0  0  0  0  0  0  0
  -48.4517   57.5938   64.7674 C   0  0  0  0  0  0  0  0  0  0  0  0
  -49.7603   58.1968   65.2026 C   0  0  0  0  0  0  0  0  0  0  0  0
  -49.8999   59.6716   64.9662 C   0  0  0  0  0  0  0  0  0  0  0  0
  -51.0519   60.0200   64.1220 C   0  0  0  0  0  0  0  0  0  0  0  0
  -51.0719   60.2173   62.8223 C   0  0  0  0  0  0  0  0  0  0  0  0
  -49.9409   60.1173   61.8656 C   0  0  0  0  0  0  0  0  0  0  0  0
  -49.4997   58.7096   61.5207 C   0  0  0  0  0  0  0  0  0  0  0  0
  -50.6428   57.8304   61.0934 C   0  0  0  0  0  0  0  0  0  0  0  0
  -50.2645   56.7236   60.1427 C   0  0  0  0  0  0  0  0  0  0  0  0
  -49.1367   57.1153   59.2135 C   0  0  0  0  0  0  0  0  0  0  0  0
  -47.9160   56.2419   59.2959 C   0  0  0  0  0  0  0  0  0  0  0  0
  -47.3031   55.9735   57.9799 C   0  0  0  0  0  0  0  0  0  0  0  0
  -46.8664   57.1833   57.2857 C   0  0  0  0  0  0  0  0  0  0  0  0
  -42.1077   59.4520   65.1516 O   0  0  0  0  0  0  0  0  0  0  0  0
  -41.3300   60.1501   66.1496 C   0  0  0  0  0  0  0  0  0  0  0  0
  -40.3581   61.0412   65.4108 C   0  0  0  0  0  0  0  0  0  0  0  0
  -40.6543   62.4083   65.6965 O   0  0  0  0  0  0  0  0  0  0  0  0
  -40.5213   62.5771   66.6424 H   0  0  0  0  0  0  0  0  0  0  0  0
  -38.9019   60.7948   65.7224 C   0  0  0  0  0  0  0  0  0  0  0  0
  -38.2169   62.0632   65.7471 O   0  0  0  0  0  0  0  0  0  0  0  0
  -36.6754   62.1321   65.3615 P   0  0  0  0  0  0  0  0  0  0  0  0
  -36.5932   62.7224   64.0102 O   0  0  0  0  0  0  0  0  0  0  0  0
  -35.9841   62.8002   66.4816 O   0  0  0  0  0  0  0  0  0  0  0  0
  -36.3018   63.7134   66.5592 H   0  0  0  0  0  0  0  0  0  0  0  0
  -36.1175   60.6490   65.2837 O   0  0  0  0  0  0  0  0  0  0  0  0
  -35.6965   60.1069   64.0098 C   0  0  0  0  0  0  0  0  0  0  0  0
  -36.2712   58.7102   63.9440 C   0  0  0  0  0  0  0  0  0  0  0  0
  -37.3725   58.4868   62.9267 N   0  0  0  0  0  0  0  0  0  0  0  0
  -38.5748   57.8653   63.5616 C   0  0  0  0  0  0  0  0  0  0  0  0
  -36.8791   57.5781   61.8468 C   0  0  0  0  0  0  0  0  0  0  0  0
  -37.7725   59.7973   62.3251 C   0  0  0  0  0  0  0  0  0  0  0  0
 34 33  1  0  0  0
 34 35  1  0  0  0
 34 36  1  0  0  0
 34 37  1  0  0  0
 22 23  1  0  0  0
 22 25  1  0  0  0
 22 21  1  0  0  0
 23 24  1  0  0  0
 27 26  1  0  0  0
 27 28  2  0  0  0
 27 31  1  0  0  0
 27 29  1  0  0  0
 25 26  1  0  0  0
 32 33  1  0  0  0
 32 31  1  0  0  0
 29 30  1  0  0  0
 20 21  1  0  0  0
 20  2  1  0  0  0
  1  2  2  0  0  0
  2  3  1  0  0  0
  3  4  1  0  0  0
  4  5  1  0  0  0
  5  6  1  0  0  0
  6  7  1  0  0  0
  7  8  1  0  0  0
  8  9  1  0  0  0
  9 10  1  0  0  0
 10 11  2  0  0  0
 11 12  1  0  0  0
 12 13  1  0  0  0
 13 14  1  0  0  0
 14 15  1  0  0  0
 15 16  1  0  0  0
 16 17  1  0  0  0
 17 18  1  0  0  0
 18 19  1  0  0  0
M  CHG 1  28  -1
M  END
> <minimizedAffinity>
-8.26758

> <CNNscore>
0.8871471286

> <CNNaffinity>
7.1373605728

> <CNN_VS>
6.3318891525

> <CNNaffinity_variance>
0.3904312849

$$$$
/media/chris/experiments/cd1a-new-docking/inputs/ligands/4x6c_ligand.pdb


 37 36  0  0  0  0  0  0  0  0999 V2000
  -39.0627   59.7434   65.6132 O   0  0  0  0  0  0  0  0  0  0  0  0
  -39.2200   60.9242   65.6748 C   0  0  0  0  0  0  0  0  0  0  0  0
  -40.5517   61.6002   65.7040 C   0  0  0  0  0  0  0  0  0  0  0  0
  -41.6883   60.6846   65.2899 C   0  0  0  0  0  0  0  0  0  0  0  0
  -42.3996   60.0579   66.4696 C   0  0  0  0  0  0  0  0  0  0  0  0
  -43.7516   59.4678   66.1442 C   0  0  0  0  0  0  0  0  0  0  0  0
  -43.6887   58.2488   65.2597 C   0  0  0  0  0  0  0  0  0  0  0  0
  -44.9174   58.0967   64.4039 C   0  0  0  0  0  0  0  0  0  0  0  0
  -46.2020   57.8946   65.1516 C   0  0  0  0  0  0  0  0  0  0  0  0
  -47.0881   59.0670   65.1156 C   0  0  0  0  0  0  0  0  0  0  0  0
  -48.3176   59.1378   64.6553 C   0  0  0  0  0  0  0  0  0  0  0  0
  -49.1393   58.0469   64.0729 C   0  0  0  0  0  0  0  0  0  0  0  0
  -49.1347   57.9621   62.5603 C   0  0  0  0  0  0  0  0  0  0  0  0
  -50.4881   58.2248   61.9592 C   0  0  0  0  0  0  0  0  0  0  0  0
  -50.8750   57.2862   60.8450 C   0  0  0  0  0  0  0  0  0  0  0  0
  -50.1744   57.6085   59.5435 C   0  0  0  0  0  0  0  0  0  0  0  0
  -49.2206   56.5524   59.0593 C   0  0  0  0  0  0  0  0  0  0  0  0
  -48.1165   57.0958   58.2438 C   0  0  0  0  0  0  0  0  0  0  0  0
  -46.9563   56.2097   58.1737 C   0  0  0  0  0  0  0  0  0  0  0  0
  -38.2200   61.8045   65.7180 O   0  0  0  0  0  0  0  0  0  0  0  0
  -36.8886   61.2916   65.9467 C   0  0  0  0  0  0  0  0  0  0  0  0
  -35.9318   62.4488   65.7729 C   0  0  0  0  0  0  0  0  0  0  0  0
  -35.9482   63.2603   66.9474 O   0  0  0  0  0  0  0  0  0  0  0  0
  -35.6245   62.7437   67.7019 H   0  0  0  0  0  0  0  0  0  0  0  0
  -34.5026   62.0581   65.4845 C   0  0  0  0  0  0  0  0  0  0  0  0
  -34.4774   61.2674   64.2791 O   0  0  0  0  0  0  0  0  0  0  0  0
  -33.4335   60.0753   64.1423 P   0  0  0  0  0  0  0  0  0  0  0  0
  -32.2787   60.5961   63.3832 O   0  0  0  0  0  0  0  0  0  0  0  0
  -33.2183   59.5377   65.5002 O   0  0  0  0  0  0  0  0  0  0  0  0
  -32.8064   60.2178   66.0557 H   0  0  0  0  0  0  0  0  0  0  0  0
  -34.1065   58.9238   63.2832 O   0  0  0  0  0  0  0  0  0  0  0  0
  -35.1343   58.0948   63.8749 C   0  0  0  0  0  0  0  0  0  0  0  0
  -35.8958   57.4900   62.7173 C   0  0  0  0  0  0  0  0  0  0  0  0
  -37.1517   58.2217   62.2872 N   0  0  0  0  0  0  0  0  0  0  0  0
  -37.1013   59.6608   62.6886 C   0  0  0  0  0  0  0  0  0  0  0  0
  -38.3442   57.5882   62.9292 C   0  0  0  0  0  0  0  0  0  0  0  0
  -37.2924   58.1443   60.7995 C   0  0  0  0  0  0  0  0  0  0  0  0
 34 33  1  0  0  0
 34 35  1  0  0  0
 34 36  1  0  0  0
 34 37  1  0  0  0
 22 23  1  0  0  0
 22 25  1  0  0  0
 22 21  1  0  0  0
 23 24  1  0  0  0
 27 26  1  0  0  0
 27 28  2  0  0  0
 27 31  1  0  0  0
 27 29  1  0  0  0
 25 26  1  0  0  0
 32 33  1  0  0  0
 32 31  1  0  0  0
 29 30  1  0  0  0
 20 21  1  0  0  0
 20  2  1  0  0  0
  1  2  2  0  0  0
  2  3  1  0  0  0
  3  4  1  0  0  0
  4  5  1  0  0  0
  5  6  1  0  0  0
  6  7  1  0  0  0
  7  8  1  0  0  0
  8  9  1  0  0  0
  9 10  1  0  0  0
 10 11  2  0  0  0
 11 12  1  0  0  0
 12 13  1  0  0  0
 13 14  1  0  0  0
 14 15  1  0  0  0
 15 16  1  0  0  0
 16 17  1  0  0  0
 17 18  1  0  0  0
 18 19  1  0  0  0
M  CHG 1  28  -1
M  END
> <minimizedAffinity>
-7.48168

> <CNNscore>
0.7606068850

> <CNNaffinity>
6.8800382614

> <CNN_VS>
5.2330045700

> <CNNaffinity_variance>
0.6021712422

$$$$
/media/chris/experiments/cd1a-new-docking/inputs/ligands/4x6c_ligand.pdb


 37 36  0  0  0  0  0  0  0  0999 V2000
  -42.1926   60.2545   63.8701 O   0  0  0  0  0  0  0  0  0  0  0  0
  -42.1270   60.1100   65.0523 C   0  0  0  0  0  0  0  0  0  0  0  0
  -43.2986   59.8370   65.9378 C   0  0  0  0  0  0  0  0  0  0  0  0
  -44.5560   59.4892   65.1636 C   0  0  0  0  0  0  0  0  0  0  0  0
  -45.1041   58.1225   65.5131 C   0  0  0  0  0  0  0  0  0  0  0  0
  -46.5128   58.1335   66.0584 C   0  0  0  0  0  0  0  0  0  0  0  0
  -47.5097   58.8203   65.1602 C   0  0  0  0  0  0  0  0  0  0  0  0
  -48.4987   57.8581   64.5591 C   0  0  0  0  0  0  0  0  0  0  0  0
  -49.9057   57.9814   65.0645 C   0  0  0  0  0  0  0  0  0  0  0  0
  -50.3536   59.3742   65.2079 C   0  0  0  0  0  0  0  0  0  0  0  0
  -50.8189   60.1744   64.2741 C   0  0  0  0  0  0  0  0  0  0  0  0
  -51.0345   59.8725   62.8365 C   0  0  0  0  0  0  0  0  0  0  0  0
  -49.9160   60.2944   61.9057 C   0  0  0  0  0  0  0  0  0  0  0  0
  -49.7461   59.3594   60.7400 C   0  0  0  0  0  0  0  0  0  0  0  0
  -49.7072   57.8977   61.1058 C   0  0  0  0  0  0  0  0  0  0  0  0
  -49.7048   56.9943   59.8923 C   0  0  0  0  0  0  0  0  0  0  0  0
  -48.3434   56.6892   59.3327 C   0  0  0  0  0  0  0  0  0  0  0  0
  -48.2588   56.8819   57.8715 C   0  0  0  0  0  0  0  0  0  0  0  0
  -46.8929   57.0795   57.3905 C   0  0  0  0  0  0  0  0  0  0  0  0
  -40.9913   60.1819   65.7465 O   0  0  0  0  0  0  0  0  0  0  0  0
  -39.7583   59.9271   65.0375 C   0  0  0  0  0  0  0  0  0  0  0  0
  -38.9745   61.2195   65.0325 C   0  0  0  0  0  0  0  0  0  0  0  0
  -39.7111   62.2255   65.7279 O   0  0  0  0  0  0  0  0  0  0  0  0
  -39.8135   61.9669   66.6572 H   0  0  0  0  0  0  0  0  0  0  0  0
  -37.5960   61.1329   65.6411 C   0  0  0  0  0  0  0  0  0  0  0  0
  -37.1152   62.4709   65.8804 O   0  0  0  0  0  0  0  0  0  0  0  0
  -35.6015   62.6971   66.3126 P   0  0  0  0  0  0  0  0  0  0  0  0
  -35.5487   62.5770   67.7836 O   0  0  0  0  0  0  0  0  0  0  0  0
  -34.7810   61.7893   65.4868 O   0  0  0  0  0  0  0  0  0  0  0  0
  -35.0053   60.8694   65.6972 H   0  0  0  0  0  0  0  0  0  0  0  0
  -35.1925   64.1806   65.9265 O   0  0  0  0  0  0  0  0  0  0  0  0
  -34.3883   64.4191   64.7474 C   0  0  0  0  0  0  0  0  0  0  0  0
  -33.3085   65.3884   65.1719 C   0  0  0  0  0  0  0  0  0  0  0  0
  -31.8854   64.9993   64.8239 N   0  0  0  0  0  0  0  0  0  0  0  0
  -31.1978   66.0905   64.0681 C   0  0  0  0  0  0  0  0  0  0  0  0
  -31.8965   63.7663   63.9783 C   0  0  0  0  0  0  0  0  0  0  0  0
  -31.1180   64.7299   66.0800 C   0  0  0  0  0  0  0  0  0  0  0  0
 34 33  1  0  0  0
 34 35  1  0  0  0
 34 36  1  0  0  0
 34 37  1  0  0  0
 22 23  1  0  0  0
 22 25  1  0  0  0
 22 21  1  0  0  0
 23 24  1  0  0  0
 27 26  1  0  0  0
 27 28  2  0  0  0
 27 31  1  0  0  0
 27 29  1  0  0  0
 25 26  1  0  0  0
 32 33  1  0  0  0
 32 31  1  0  0  0
 29 30  1  0  0  0
 20 21  1  0  0  0
 20  2  1  0  0  0
  1  2  2  0  0  0
  2  3  1  0  0  0
  3  4  1  0  0  0
  4  5  1  0  0  0
  5  6  1  0  0  0
  6  7  1  0  0  0
  7  8  1  0  0  0
  8  9  1  0  0  0
  9 10  1  0  0  0
 10 11  2  0  0  0
 11 12  1  0  0  0
 12 13  1  0  0  0
 13 14  1  0  0  0
 14 15  1  0  0  0
 15 16  1  0  0  0
 16 17  1  0  0  0
 17 18  1  0  0  0
 18 19  1  0  0  0
M  CHG 1  28  -1
M  END
> <minimizedAffinity>
-8.22890

> <CNNscore>
0.7602395415

> <CNNaffinity>
6.2644486427

> <CNN_VS>
4.7624816895

> <CNNaffinity_variance>
0.4304439127

$$$$
/media/chris/experiments/cd1a-new-docking/inputs/ligands/4x6c_ligand.pdb


 37 36  0  0  0  0  0  0  0  0999 V2000
  -42.0220   57.6306   65.6671 O   0  0  0  0  0  0  0  0  0  0  0  0
  -42.7380   58.5749   65.5303 C   0  0  0  0  0  0  0  0  0  0  0  0
  -44.1885   58.4938   65.1831 C   0  0  0  0  0  0  0  0  0  0  0  0
  -44.8329   57.1973   65.6360 C   0  0  0  0  0  0  0  0  0  0  0  0
  -46.1955   57.4036   66.2615 C   0  0  0  0  0  0  0  0  0  0  0  0
  -47.3299   56.7273   65.5284 C   0  0  0  0  0  0  0  0  0  0  0  0
  -48.3701   57.6818   64.9999 C   0  0  0  0  0  0  0  0  0  0  0  0
  -47.7955   59.0344   64.6749 C   0  0  0  0  0  0  0  0  0  0  0  0
  -48.7224   60.1951   64.8846 C   0  0  0  0  0  0  0  0  0  0  0  0
  -50.1409   59.8104   64.9134 C   0  0  0  0  0  0  0  0  0  0  0  0
  -51.0042   59.8285   63.9219 C   0  0  0  0  0  0  0  0  0  0  0  0
  -50.7656   60.2206   62.5099 C   0  0  0  0  0  0  0  0  0  0  0  0
  -49.9740   59.2292   61.6817 C   0  0  0  0  0  0  0  0  0  0  0  0
  -50.4438   57.8123   61.8652 C   0  0  0  0  0  0  0  0  0  0  0  0
  -50.6915   57.0601   60.5828 C   0  0  0  0  0  0  0  0  0  0  0  0
  -50.0981   57.7549   59.3771 C   0  0  0  0  0  0  0  0  0  0  0  0
  -49.1486   56.9171   58.5670 C   0  0  0  0  0  0  0  0  0  0  0  0
  -48.3932   55.9437   59.3801 C   0  0  0  0  0  0  0  0  0  0  0  0
  -47.0555   55.6676   58.8601 C   0  0  0  0  0  0  0  0  0  0  0  0
  -42.3331   59.8380   65.6622 O   0  0  0  0  0  0  0  0  0  0  0  0
  -40.9100   60.0792   65.7303 C   0  0  0  0  0  0  0  0  0  0  0  0
  -40.6446   61.3755   64.9997 C   0  0  0  0  0  0  0  0  0  0  0  0
  -40.4373   62.4224   65.9480 O   0  0  0  0  0  0  0  0  0  0  0  0
  -39.6435   62.2318   66.4718 H   0  0  0  0  0  0  0  0  0  0  0  0
  -39.4663   61.3476   64.0567 C   0  0  0  0  0  0  0  0  0  0  0  0
  -39.7549   60.4226   62.9891 O   0  0  0  0  0  0  0  0  0  0  0  0
  -38.7974   60.3620   61.7207 P   0  0  0  0  0  0  0  0  0  0  0  0
  -39.6539   60.4943   60.5249 O   0  0  0  0  0  0  0  0  0  0  0  0
  -37.7231   61.3485   61.9487 O   0  0  0  0  0  0  0  0  0  0  0  0
  -38.1038   62.2401   61.9787 H   0  0  0  0  0  0  0  0  0  0  0  0
  -38.1176   58.9291   61.6812 O   0  0  0  0  0  0  0  0  0  0  0  0
  -38.3147   58.0111   62.7822 C   0  0  0  0  0  0  0  0  0  0  0  0
  -36.9497   57.4421   63.0962 C   0  0  0  0  0  0  0  0  0  0  0  0
  -36.1583   58.1568   64.1734 N   0  0  0  0  0  0  0  0  0  0  0  0
  -37.0659   58.8362   65.1479 C   0  0  0  0  0  0  0  0  0  0  0  0
  -35.2752   59.1868   63.5451 C   0  0  0  0  0  0  0  0  0  0  0  0
  -35.3141   57.1683   64.9146 C   0  0  0  0  0  0  0  0  0  0  0  0
 34 33  1  0  0  0
 34 35  1  0  0  0
 34 36  1  0  0  0
 34 37  1  0  0  0
 22 23  1  0  0  0
 22 25  1  0  0  0
 22 21  1  0  0  0
 23 24  1  0  0  0
 27 26  1  0  0  0
 27 28  2  0  0  0
 27 31  1  0  0  0
 27 29  1  0  0  0
 25 26  1  0  0  0
 32 33  1  0  0  0
 32 31  1  0  0  0
 29 30  1  0  0  0
 20 21  1  0  0  0
 20  2  1  0  0  0
  1  2  2  0  0  0
  2  3  1  0  0  0
  3  4  1  0  0  0
  4  5  1  0  0  0
  5  6  1  0  0  0
  6  7  1  0  0  0
  7  8  1  0  0  0
  8  9  1  0  0  0
  9 10  1  0  0  0
 10 11  2  0  0  0
 11 12  1  0  0  0
 12 13  1  0  0  0
 13 14  1  0  0  0
 14 15  1  0  0  0
 15 16  1  0  0  0
 16 17  1  0  0  0
 17 18  1  0  0  0
 18 19  1  0  0  0
M  CHG 1  28  -1
M  END
> <minimizedAffinity>
-8.28039

> <CNNscore>
0.7535488009

> <CNNaffinity>
6.9439048767

> <CNN_VS>
5.2325711250

> <CNNaffinity_variance>
0.3820169568

$$$$
/media/chris/experiments/cd1a-new-docking/inputs/ligands/4x6c_ligand.pdb


 37 36  0  0  0  0  0  0  0  0999 V2000
  -42.4091   57.9466   66.2008 O   0  0  0  0  0  0  0  0  0  0  0  0
  -42.4602   58.9089   65.4977 C   0  0  0  0  0  0  0  0  0  0  0  0
  -43.7205   59.6182   65.1242 C   0  0  0  0  0  0  0  0  0  0  0  0
  -44.8939   59.2436   66.0098 C   0  0  0  0  0  0  0  0  0  0  0  0
  -46.2328   59.4794   65.3448 C   0  0  0  0  0  0  0  0  0  0  0  0
  -46.8269   58.2584   64.6830 C   0  0  0  0  0  0  0  0  0  0  0  0
  -48.2658   58.0030   65.0525 C   0  0  0  0  0  0  0  0  0  0  0  0
  -48.9739   59.2533   65.5006 C   0  0  0  0  0  0  0  0  0  0  0  0
  -50.4465   59.2959   65.2179 C   0  0  0  0  0  0  0  0  0  0  0  0
  -50.8033   60.2081   64.1216 C   0  0  0  0  0  0  0  0  0  0  0  0
  -50.9969   59.9136   62.8550 C   0  0  0  0  0  0  0  0  0  0  0  0
  -50.9276   58.5799   62.2062 C   0  0  0  0  0  0  0  0  0  0  0  0
  -49.5986   58.2327   61.5671 C   0  0  0  0  0  0  0  0  0  0  0  0
  -49.5891   58.4667   60.0815 C   0  0  0  0  0  0  0  0  0  0  0  0
  -49.7215   57.2187   59.2467 C   0  0  0  0  0  0  0  0  0  0  0  0
  -48.7313   56.1459   59.6435 C   0  0  0  0  0  0  0  0  0  0  0  0
  -47.3905   56.2416   58.9706 C   0  0  0  0  0  0  0  0  0  0  0  0
  -47.4667   56.7722   57.5951 C   0  0  0  0  0  0  0  0  0  0  0  0
  -47.5840   55.7303   56.5769 C   0  0  0  0  0  0  0  0  0  0  0  0
  -41.3912   59.4783   64.9410 O   0  0  0  0  0  0  0  0  0  0  0  0
  -41.4981   60.8677   64.5585 C   0  0  0  0  0  0  0  0  0  0  0  0
  -40.1735   61.5199   64.8822 C   0  0  0  0  0  0  0  0  0  0  0  0
  -40.3631   62.5024   65.9005 O   0  0  0  0  0  0  0  0  0  0  0  0
  -40.6657   62.0702   66.7144 H   0  0  0  0  0  0  0  0  0  0  0  0
  -39.0879   60.5723   65.3315 C   0  0  0  0  0  0  0  0  0  0  0  0
  -37.8454   60.9756   64.7213 O   0  0  0  0  0  0  0  0  0  0  0  0
  -36.5999   61.3406   65.6404 P   0  0  0  0  0  0  0  0  0  0  0  0
  -37.0160   61.1213   67.0404 O   0  0  0  0  0  0  0  0  0  0  0  0
  -35.4428   60.5940   65.1086 O   0  0  0  0  0  0  0  0  0  0  0  0
  -35.6008   59.6418   65.2040 H   0  0  0  0  0  0  0  0  0  0  0  0
  -36.2856   62.8850   65.4582 O   0  0  0  0  0  0  0  0  0  0  0  0
  -34.9944   63.4055   65.8526 C   0  0  0  0  0  0  0  0  0  0  0  0
  -34.7973   64.6733   65.0529 C   0  0  0  0  0  0  0  0  0  0  0  0
  -33.8921   64.5667   63.8418 N   0  0  0  0  0  0  0  0  0  0  0  0
  -32.8774   65.6644   63.8291 C   0  0  0  0  0  0  0  0  0  0  0  0
  -34.7119   64.6597   62.5949 C   0  0  0  0  0  0  0  0  0  0  0  0
  -33.1760   63.2530   63.8652 C   0  0  0  0  0  0  0  0  0  0  0  0
 34 33  1  0  0  0
 34 35  1  0  0  0
 34 36  1  0  0  0
 34 37  1  0  0  0
 22 23  1  0  0  0
 22 25  1  0  0  0
 22 21  1  0  0  0
 23 24  1  0  0  0
 27 26  1  0  0  0
 27 28  2  0  0  0
 27 31  1  0  0  0
 27 29  1  0  0  0
 25 26  1  0  0  0
 32 33  1  0  0  0
 32 31  1  0  0  0
 29 30  1  0  0  0
 20 21  1  0  0  0
 20  2  1  0  0  0
  1  2  2  0  0  0
  2  3  1  0  0  0
  3  4  1  0  0  0
  4  5  1  0  0  0
  5  6  1  0  0  0
  6  7  1  0  0  0
  7  8  1  0  0  0
  8  9  1  0  0  0
  9 10  1  0  0  0
 10 11  2  0  0  0
 11 12  1  0  0  0
 12 13  1  0  0  0
 13 14  1  0  0  0
 14 15  1  0  0  0
 15 16  1  0  0  0
 16 17  1  0  0  0
 17 18  1  0  0  0
 18 19  1  0  0  0
M  CHG 1  28  -1
M  END
> <minimizedAffinity>
-8.11654

> <CNNscore>
0.7449840307

> <CNNaffinity>
6.3779873848

> <CNN_VS>
4.7514986992

> <CNNaffinity_variance>
0.3230741620

$$$$
/media/chris/experiments/cd1a-new-docking/inputs/ligands/4x6c_ligand.pdb


 37 36  0  0  0  0  0  0  0  0999 V2000
  -42.5904   57.2887   66.2402 O   0  0  0  0  0  0  0  0  0  0  0  0
  -42.6108   58.2590   65.5466 C   0  0  0  0  0  0  0  0  0  0  0  0
  -43.8487   58.8527   64.9580 C   0  0  0  0  0  0  0  0  0  0  0  0
  -44.9067   59.1654   65.9993 C   0  0  0  0  0  0  0  0  0  0  0  0
  -46.1605   58.3341   65.8334 C   0  0  0  0  0  0  0  0  0  0  0  0
  -47.2283   58.9752   64.9786 C   0  0  0  0  0  0  0  0  0  0  0  0
  -47.7859   60.2519   65.5541 C   0  0  0  0  0  0  0  0  0  0  0  0
  -47.9943   61.3112   64.5054 C   0  0  0  0  0  0  0  0  0  0  0  0
  -48.7749   60.8789   63.2996 C   0  0  0  0  0  0  0  0  0  0  0  0
  -50.1944   60.6245   63.5846 C   0  0  0  0  0  0  0  0  0  0  0  0
  -50.9046   59.5630   63.2722 C   0  0  0  0  0  0  0  0  0  0  0  0
  -50.4522   58.3355   62.5702 C   0  0  0  0  0  0  0  0  0  0  0  0
  -50.2494   58.4751   61.0753 C   0  0  0  0  0  0  0  0  0  0  0  0
  -50.3785   57.1659   60.3464 C   0  0  0  0  0  0  0  0  0  0  0  0
  -49.4641   57.0143   59.1578 C   0  0  0  0  0  0  0  0  0  0  0  0
  -48.3891   55.9733   59.3800 C   0  0  0  0  0  0  0  0  0  0  0  0
  -47.0599   56.2919   58.7542 C   0  0  0  0  0  0  0  0  0  0  0  0
  -47.1743   57.1126   57.5325 C   0  0  0  0  0  0  0  0  0  0  0  0
  -47.2737   56.3203   56.3084 C   0  0  0  0  0  0  0  0  0  0  0  0
  -41.5218   58.9426   65.1953 O   0  0  0  0  0  0  0  0  0  0  0  0
  -41.0838   60.0000   66.0775 C   0  0  0  0  0  0  0  0  0  0  0  0
  -41.1032   61.2819   65.2770 C   0  0  0  0  0  0  0  0  0  0  0  0
  -39.9948   62.0973   65.6574 O   0  0  0  0  0  0  0  0  0  0  0  0
  -39.1674   61.6432   65.4337 H   0  0  0  0  0  0  0  0  0  0  0  0
  -41.0681   61.1001   63.7789 C   0  0  0  0  0  0  0  0  0  0  0  0
  -39.8311   61.6466   63.2792 O   0  0  0  0  0  0  0  0  0  0  0  0
  -38.5902   60.6838   63.0291 P   0  0  0  0  0  0  0  0  0  0  0  0
  -39.1067   59.3003   63.0399 O   0  0  0  0  0  0  0  0  0  0  0  0
  -37.8973   61.1835   61.8252 O   0  0  0  0  0  0  0  0  0  0  0  0
  -38.4839   61.1015   61.0570 H   0  0  0  0  0  0  0  0  0  0  0  0
  -37.5867   60.8424   64.2476 O   0  0  0  0  0  0  0  0  0  0  0  0
  -36.1661   60.6691   64.0340 C   0  0  0  0  0  0  0  0  0  0  0  0
  -35.7158   59.6477   65.0537 C   0  0  0  0  0  0  0  0  0  0  0  0
  -35.2221   58.3247   64.5028 N   0  0  0  0  0  0  0  0  0  0  0  0
  -33.8481   58.0120   65.0021 C   0  0  0  0  0  0  0  0  0  0  0  0
  -35.1848   58.3873   63.0094 C   0  0  0  0  0  0  0  0  0  0  0  0
  -36.1470   57.2280   64.9282 C   0  0  0  0  0  0  0  0  0  0  0  0
 34 33  1  0  0  0
 34 35  1  0  0  0
 34 36  1  0  0  0
 34 37  1  0  0  0
 22 23  1  0  0  0
 22 25  1  0  0  0
 22 21  1  0  0  0
 23 24  1  0  0  0
 27 26  1  0  0  0
 27 28  2  0  0  0
 27 31  1  0  0  0
 27 29  1  0  0  0
 25 26  1  0  0  0
 32 33  1  0  0  0
 32 31  1  0  0  0
 29 30  1  0  0  0
 20 21  1  0  0  0
 20  2  1  0  0  0
  1  2  2  0  0  0
  2  3  1  0  0  0
  3  4  1  0  0  0
  4  5  1  0  0  0
  5  6  1  0  0  0
  6  7  1  0  0  0
  7  8  1  0  0  0
  8  9  1  0  0  0
  9 10  1  0  0  0
 10 11  2  0  0  0
 11 12  1  0  0  0
 12 13  1  0  0  0
 13 14  1  0  0  0
 14 15  1  0  0  0
 15 16  1  0  0  0
 16 17  1  0  0  0
 17 18  1  0  0  0
 18 19  1  0  0  0
M  CHG 1  28  -1
M  END
> <minimizedAffinity>
-8.06274

> <CNNscore>
0.7166821361

> <CNNaffinity>
6.7065672874

> <CNN_VS>
4.8064770699

> <CNNaffinity_variance>
0.2482294589

$$$$
/media/chris/experiments/cd1a-new-docking/inputs/ligands/4x6c_ligand.pdb


 37 36  0  0  0  0  0  0  0  0999 V2000
  -39.5793   59.0338   63.8402 O   0  0  0  0  0  0  0  0  0  0  0  0
  -39.7734   59.9582   63.1116 C   0  0  0  0  0  0  0  0  0  0  0  0
  -40.8155   61.0054   63.3323 C   0  0  0  0  0  0  0  0  0  0  0  0
  -40.8799   61.4808   64.7715 C   0  0  0  0  0  0  0  0  0  0  0  0
  -41.7907   60.6321   65.6321 C   0  0  0  0  0  0  0  0  0  0  0  0
  -43.0502   60.1660   64.9406 C   0  0  0  0  0  0  0  0  0  0  0  0
  -43.8582   59.1792   65.7442 C   0  0  0  0  0  0  0  0  0  0  0  0
  -44.9448   58.5294   64.9303 C   0  0  0  0  0  0  0  0  0  0  0  0
  -46.3240   59.0804   65.1409 C   0  0  0  0  0  0  0  0  0  0  0  0
  -47.2988   58.0651   65.5653 C   0  0  0  0  0  0  0  0  0  0  0  0
  -48.3064   57.5742   64.8781 C   0  0  0  0  0  0  0  0  0  0  0  0
  -48.7087   57.9007   63.4867 C   0  0  0  0  0  0  0  0  0  0  0  0
  -50.0939   58.4936   63.3294 C   0  0  0  0  0  0  0  0  0  0  0  0
  -50.4660   58.7282   61.8912 C   0  0  0  0  0  0  0  0  0  0  0  0
  -50.8730   57.4888   61.1361 C   0  0  0  0  0  0  0  0  0  0  0  0
  -50.3818   57.4919   59.7052 C   0  0  0  0  0  0  0  0  0  0  0  0
  -48.9767   56.9919   59.5169 C   0  0  0  0  0  0  0  0  0  0  0  0
  -48.5910   56.8619   58.0979 C   0  0  0  0  0  0  0  0  0  0  0  0
  -47.1475   56.9325   57.8801 C   0  0  0  0  0  0  0  0  0  0  0  0
  -39.0858   60.1763   61.9907 O   0  0  0  0  0  0  0  0  0  0  0  0
  -37.7216   59.7024   61.9415 C   0  0  0  0  0  0  0  0  0  0  0  0
  -37.7298   58.4079   61.1613 C   0  0  0  0  0  0  0  0  0  0  0  0
  -37.2858   58.6536   59.8269 O   0  0  0  0  0  0  0  0  0  0  0  0
  -36.3661   58.9614   59.8437 H   0  0  0  0  0  0  0  0  0  0  0  0
  -36.8850   57.3031   61.7480 C   0  0  0  0  0  0  0  0  0  0  0  0
  -37.0202   57.3349   63.1830 O   0  0  0  0  0  0  0  0  0  0  0  0
  -35.7223   57.4686   64.0924 P   0  0  0  0  0  0  0  0  0  0  0  0
  -35.8368   56.4565   65.1618 O   0  0  0  0  0  0  0  0  0  0  0  0
  -34.5586   57.4279   63.1850 O   0  0  0  0  0  0  0  0  0  0  0  0
  -34.5171   56.5614   62.7510 H   0  0  0  0  0  0  0  0  0  0  0  0
  -35.7382   58.9028   64.7705 O   0  0  0  0  0  0  0  0  0  0  0  0
  -34.8002   59.9137   64.3325 C   0  0  0  0  0  0  0  0  0  0  0  0
  -34.3768   60.6542   65.5808 C   0  0  0  0  0  0  0  0  0  0  0  0
  -34.6038   62.1529   65.5793 N   0  0  0  0  0  0  0  0  0  0  0  0
  -34.0351   62.7854   66.8087 C   0  0  0  0  0  0  0  0  0  0  0  0
  -36.0710   62.4366   65.5314 C   0  0  0  0  0  0  0  0  0  0  0  0
  -33.9443   62.7587   64.3805 C   0  0  0  0  0  0  0  0  0  0  0  0
 34 33  1  0  0  0
 34 35  1  0  0  0
 34 36  1  0  0  0
 34 37  1  0  0  0
 22 23  1  0  0  0
 22 25  1  0  0  0
 22 21  1  0  0  0
 23 24  1  0  0  0
 27 26  1  0  0  0
 27 28  2  0  0  0
 27 31  1  0  0  0
 27 29  1  0  0  0
 25 26  1  0  0  0
 32 33  1  0  0  0
 32 31  1  0  0  0
 29 30  1  0  0  0
 20 21  1  0  0  0
 20  2  1  0  0  0
  1  2  2  0  0  0
  2  3  1  0  0  0
  3  4  1  0  0  0
  4  5  1  0  0  0
  5  6  1  0  0  0
  6  7  1  0  0  0
  7  8  1  0  0  0
  8  9  1  0  0  0
  9 10  1  0  0  0
 10 11  2  0  0  0
 11 12  1  0  0  0
 12 13  1  0  0  0
 13 14  1  0  0  0
 14 15  1  0  0  0
 15 16  1  0  0  0
 16 17  1  0  0  0
 17 18  1  0  0  0
 18 19  1  0  0  0
M  CHG 1  28  -1
M  END
> <minimizedAffinity>
-7.67912

> <CNNscore>
0.6966100335

> <CNNaffinity>
6.7025198936

> <CNN_VS>
4.6690425873

> <CNNaffinity_variance>
0.6736171842

$$$$
/media/chris/experiments/cd1a-new-docking/inputs/ligands/4x6c_ligand.pdb


 37 36  0  0  0  0  0  0  0  0999 V2000
  -41.5573   60.5289   64.3308 O   0  0  0  0  0  0  0  0  0  0  0  0
  -41.1210   60.1424   65.3716 C   0  0  0  0  0  0  0  0  0  0  0  0
  -41.7993   59.1487   66.2569 C   0  0  0  0  0  0  0  0  0  0  0  0
  -43.1827   58.7668   65.7651 C   0  0  0  0  0  0  0  0  0  0  0  0
  -43.3940   57.2694   65.7050 C   0  0  0  0  0  0  0  0  0  0  0  0
  -44.7467   56.8485   65.1807 C   0  0  0  0  0  0  0  0  0  0  0  0
  -45.8702   57.7706   65.5804 C   0  0  0  0  0  0  0  0  0  0  0  0
  -47.1924   57.0576   65.6733 C   0  0  0  0  0  0  0  0  0  0  0  0
  -48.3271   57.7067   64.9375 C   0  0  0  0  0  0  0  0  0  0  0  0
  -48.0730   59.1145   64.5991 C   0  0  0  0  0  0  0  0  0  0  0  0
  -48.9478   60.0355   64.2600 C   0  0  0  0  0  0  0  0  0  0  0  0
  -50.4224   59.8994   64.1525 C   0  0  0  0  0  0  0  0  0  0  0  0
  -50.9679   59.7983   62.7427 C   0  0  0  0  0  0  0  0  0  0  0  0
  -49.9285   60.0882   61.6950 C   0  0  0  0  0  0  0  0  0  0  0  0
  -49.7246   58.9851   60.6883 C   0  0  0  0  0  0  0  0  0  0  0  0
  -49.2459   57.6986   61.3241 C   0  0  0  0  0  0  0  0  0  0  0  0
  -49.2243   56.5083   60.4063 C   0  0  0  0  0  0  0  0  0  0  0  0
  -48.3834   56.7116   59.2101 C   0  0  0  0  0  0  0  0  0  0  0  0
  -47.4471   55.6162   58.9661 C   0  0  0  0  0  0  0  0  0  0  0  0
  -39.9649   60.5557   65.8906 O   0  0  0  0  0  0  0  0  0  0  0  0
  -39.3180   61.6858   65.2641 C   0  0  0  0  0  0  0  0  0  0  0  0
  -37.8369   61.3861   65.2303 C   0  0  0  0  0  0  0  0  0  0  0  0
  -37.5617   60.2528   66.0538 O   0  0  0  0  0  0  0  0  0  0  0  0
  -38.0107   59.4732   65.6914 H   0  0  0  0  0  0  0  0  0  0  0  0
  -37.2691   61.1249   63.8564 C   0  0  0  0  0  0  0  0  0  0  0  0
  -38.2032   60.3089   63.1214 O   0  0  0  0  0  0  0  0  0  0  0  0
  -37.9351   58.7485   62.9705 P   0  0  0  0  0  0  0  0  0  0  0  0
  -38.9954   58.0520   63.7266 O   0  0  0  0  0  0  0  0  0  0  0  0
  -37.7850   58.4783   61.5270 O   0  0  0  0  0  0  0  0  0  0  0  0
  -38.6204   58.6713   61.0733 H   0  0  0  0  0  0  0  0  0  0  0  0
  -36.5439   58.4163   63.6569 O   0  0  0  0  0  0  0  0  0  0  0  0
  -35.3418   58.3645   62.8532 C   0  0  0  0  0  0  0  0  0  0  0  0
  -34.2810   59.0918   63.6478 C   0  0  0  0  0  0  0  0  0  0  0  0
  -32.8493   58.6537   63.4110 N   0  0  0  0  0  0  0  0  0  0  0  0
  -32.0010   59.8014   62.9661 C   0  0  0  0  0  0  0  0  0  0  0  0
  -32.8179   57.5980   62.3526 C   0  0  0  0  0  0  0  0  0  0  0  0
  -32.2785   58.0995   64.6783 C   0  0  0  0  0  0  0  0  0  0  0  0
 34 33  1  0  0  0
 34 35  1  0  0  0
 34 36  1  0  0  0
 34 37  1  0  0  0
 22 23  1  0  0  0
 22 25  1  0  0  0
 22 21  1  0  0  0
 23 24  1  0  0  0
 27 26  1  0  0  0
 27 28  2  0  0  0
 27 31  1  0  0  0
 27 29  1  0  0  0
 25 26  1  0  0  0
 32 33  1  0  0  0
 32 31  1  0  0  0
 29 30  1  0  0  0
 20 21  1  0  0  0
 20  2  1  0  0  0
  1  2  2  0  0  0
  2  3  1  0  0  0
  3  4  1  0  0  0
  4  5  1  0  0  0
  5  6  1  0  0  0
  6  7  1  0  0  0
  7  8  1  0  0  0
  8  9  1  0  0  0
  9 10  1  0  0  0
 10 11  2  0  0  0
 11 12  1  0  0  0
 12 13  1  0  0  0
 13 14  1  0  0  0
 14 15  1  0  0  0
 15 16  1  0  0  0
 16 17  1  0  0  0
 17 18  1  0  0  0
 18 19  1  0  0  0
M  CHG 1  28  -1
M  END
> <minimizedAffinity>
-7.37554

> <CNNscore>
0.6669875979

> <CNNaffinity>
6.5237092972

> <CNN_VS>
4.3512330055

> <CNNaffinity_variance>
0.7721382976

$$$$
/media/chris/experiments/cd1a-new-docking/inputs/ligands/4x6c_ligand.pdb


 37 36  0  0  0  0  0  0  0  0999 V2000
  -41.1382   58.4326   65.1013 O   0  0  0  0  0  0  0  0  0  0  0  0
  -41.6863   59.4718   65.3072 C   0  0  0  0  0  0  0  0  0  0  0  0
  -43.0091   59.6109   65.9869 C   0  0  0  0  0  0  0  0  0  0  0  0
  -44.1784   59.2888   65.0755 C   0  0  0  0  0  0  0  0  0  0  0  0
  -45.2482   58.4646   65.7586 C   0  0  0  0  0  0  0  0  0  0  0  0
  -46.4197   59.2649   66.2769 C   0  0  0  0  0  0  0  0  0  0  0  0
  -47.4623   59.5680   65.2312 C   0  0  0  0  0  0  0  0  0  0  0  0
  -48.1385   58.3252   64.7178 C   0  0  0  0  0  0  0  0  0  0  0  0
  -49.5884   58.1860   65.0766 C   0  0  0  0  0  0  0  0  0  0  0  0
  -50.2822   59.4751   65.2100 C   0  0  0  0  0  0  0  0  0  0  0  0
  -50.9299   60.1448   64.2823 C   0  0  0  0  0  0  0  0  0  0  0  0
  -51.1486   59.7627   62.8643 C   0  0  0  0  0  0  0  0  0  0  0  0
  -50.0189   60.1040   61.9142 C   0  0  0  0  0  0  0  0  0  0  0  0
  -49.7956   59.0431   60.8718 C   0  0  0  0  0  0  0  0  0  0  0  0
  -49.3068   57.7233   61.4115 C   0  0  0  0  0  0  0  0  0  0  0  0
  -49.1865   56.6645   60.3376 C   0  0  0  0  0  0  0  0  0  0  0  0
  -49.0797   57.1945   58.9349 C   0  0  0  0  0  0  0  0  0  0  0  0
  -47.8068   56.8419   58.2755 C   0  0  0  0  0  0  0  0  0  0  0  0
  -47.2056   55.6145   58.7933 C   0  0  0  0  0  0  0  0  0  0  0  0
  -41.1906   60.6559   64.9476 O   0  0  0  0  0  0  0  0  0  0  0  0
  -40.2336   61.2762   65.8350 C   0  0  0  0  0  0  0  0  0  0  0  0
  -38.8959   61.2513   65.1317 C   0  0  0  0  0  0  0  0  0  0  0  0
  -38.1295   62.3893   65.5265 O   0  0  0  0  0  0  0  0  0  0  0  0
  -37.9439   62.3401   66.4773 H   0  0  0  0  0  0  0  0  0  0  0  0
  -38.0688   60.0126   65.3760 C   0  0  0  0  0  0  0  0  0  0  0  0
  -37.6113   59.5083   64.1052 O   0  0  0  0  0  0  0  0  0  0  0  0
  -37.3549   57.9492   63.9240 P   0  0  0  0  0  0  0  0  0  0  0  0
  -37.1482   57.3848   65.2730 O   0  0  0  0  0  0  0  0  0  0  0  0
  -38.4546   57.4295   63.0875 O   0  0  0  0  0  0  0  0  0  0  0  0
  -39.2955   57.5291   63.5606 H   0  0  0  0  0  0  0  0  0  0  0  0
  -36.0110   57.7605   63.1020 O   0  0  0  0  0  0  0  0  0  0  0  0
  -35.2643   58.9228   62.6717 C   0  0  0  0  0  0  0  0  0  0  0  0
  -34.2122   59.1549   63.7323 C   0  0  0  0  0  0  0  0  0  0  0  0
  -32.7735   58.9403   63.3062 N   0  0  0  0  0  0  0  0  0  0  0  0
  -32.0575   60.2434   63.1501 C   0  0  0  0  0  0  0  0  0  0  0  0
  -32.7418   58.2182   61.9973 C   0  0  0  0  0  0  0  0  0  0  0  0
  -32.0614   58.1235   64.3382 C   0  0  0  0  0  0  0  0  0  0  0  0
 34 33  1  0  0  0
 34 35  1  0  0  0
 34 36  1  0  0  0
 34 37  1  0  0  0
 22 23  1  0  0  0
 22 25  1  0  0  0
 22 21  1  0  0  0
 23 24  1  0  0  0
 27 26  1  0  0  0
 27 28  2  0  0  0
 27 31  1  0  0  0
 27 29  1  0  0  0
 25 26  1  0  0  0
 32 33  1  0  0  0
 32 31  1  0  0  0
 29 30  1  0  0  0
 20 21  1  0  0  0
 20  2  1  0  0  0
  1  2  2  0  0  0
  2  3  1  0  0  0
  3  4  1  0  0  0
  4  5  1  0  0  0
  5  6  1  0  0  0
  6  7  1  0  0  0
  7  8  1  0  0  0
  8  9  1  0  0  0
  9 10  1  0  0  0
 10 11  2  0  0  0
 11 12  1  0  0  0
 12 13  1  0  0  0
 13 14  1  0  0  0
 14 15  1  0  0  0
 15 16  1  0  0  0
 16 17  1  0  0  0
 17 18  1  0  0  0
 18 19  1  0  0  0
M  CHG 1  28  -1
M  END
> <minimizedAffinity>
-7.88595

> <CNNscore>
0.6607412696

> <CNNaffinity>
6.4289903641

> <CNN_VS>
4.2478990555

> <CNNaffinity_variance>
0.2842523754

$$$$
