/media/chris/experiments/cd1a-new-docking/inputs/ligands/4x6c_ligand.pdb


 37 36  0  0  0  0  0  0  0  0999 V2000
  -40.4585   62.0183   65.9290 O   0  0  0  0  0  0  0  0  0  0  0  0
  -40.8037   60.9243   65.6019 C   0  0  0  0  0  0  0  0  0  0  0  0
  -41.7293   60.0576   66.3913 C   0  0  0  0  0  0  0  0  0  0  0  0
  -41.9629   58.7034   65.7486 C   0  0  0  0  0  0  0  0  0  0  0  0
  -43.3972   58.4982   65.3115 C   0  0  0  0  0  0  0  0  0  0  0  0
  -43.9918   57.1705   65.7180 C   0  0  0  0  0  0  0  0  0  0  0  0
  -45.4106   56.9684   65.2505 C   0  0  0  0  0  0  0  0  0  0  0  0
  -46.2930   58.1454   65.5690 C   0  0  0  0  0  0  0  0  0  0  0  0
  -47.2337   58.5593   64.4763 C   0  0  0  0  0  0  0  0  0  0  0  0
  -48.5910   58.0192   64.6401 C   0  0  0  0  0  0  0  0  0  0  0  0
  -49.5370   57.9197   63.7323 C   0  0  0  0  0  0  0  0  0  0  0  0
  -49.4729   58.3059   62.3002 C   0  0  0  0  0  0  0  0  0  0  0  0
  -50.7152   58.0057   61.4866 C   0  0  0  0  0  0  0  0  0  0  0  0
  -50.4011   57.3815   60.1547 C   0  0  0  0  0  0  0  0  0  0  0  0
  -49.4390   56.2228   60.2138 C   0  0  0  0  0  0  0  0  0  0  0  0
  -48.1300   56.5174   59.5150 C   0  0  0  0  0  0  0  0  0  0  0  0
  -47.5909   55.3906   58.6786 C   0  0  0  0  0  0  0  0  0  0  0  0
  -47.1842   55.8148   57.3244 C   0  0  0  0  0  0  0  0  0  0  0  0
  -47.0043   57.2597   57.1986 C   0  0  0  0  0  0  0  0  0  0  0  0
  -40.3996   60.3224   64.4833 O   0  0  0  0  0  0  0  0  0  0  0  0
  -40.2569   61.1390   63.2998 C   0  0  0  0  0  0  0  0  0  0  0  0
  -39.2875   60.4273   62.3842 C   0  0  0  0  0  0  0  0  0  0  0  0
  -39.5218   60.8325   61.0354 O   0  0  0  0  0  0  0  0  0  0  0  0
  -39.3412   61.7814   60.9469 H   0  0  0  0  0  0  0  0  0  0  0  0
  -37.8286   60.6499   62.7012 C   0  0  0  0  0  0  0  0  0  0  0  0
  -37.6921   61.9231   63.3638 O   0  0  0  0  0  0  0  0  0  0  0  0
  -36.8080   62.0333   64.6812 P   0  0  0  0  0  0  0  0  0  0  0  0
  -35.5612   62.7316   64.3085 O   0  0  0  0  0  0  0  0  0  0  0  0
  -37.6718   62.6130   65.7284 O   0  0  0  0  0  0  0  0  0  0  0  0
  -37.9248   63.5149   65.4761 H   0  0  0  0  0  0  0  0  0  0  0  0
  -36.4277   60.5650   65.1467 O   0  0  0  0  0  0  0  0  0  0  0  0
  -35.0455   60.1382   65.1154 C   0  0  0  0  0  0  0  0  0  0  0  0
  -34.8033   59.6215   63.7155 C   0  0  0  0  0  0  0  0  0  0  0  0
  -34.1873   58.2406   63.6090 N   0  0  0  0  0  0  0  0  0  0  0  0
  -32.9414   58.1416   64.4292 C   0  0  0  0  0  0  0  0  0  0  0  0
  -33.8439   57.9547   62.1822 C   0  0  0  0  0  0  0  0  0  0  0  0
  -35.1638   57.2170   64.0966 C   0  0  0  0  0  0  0  0  0  0  0  0
 34 33  1  0  0  0
 34 35  1  0  0  0
 34 36  1  0  0  0
 34 37  1  0  0  0
 22 23  1  0  0  0
 22 25  1  0  0  0
 22 21  1  0  0  0
 23 24  1  0  0  0
 27 26  1  0  0  0
 27 28  2  0  0  0
 27 31  1  0  0  0
 27 29  1  0  0  0
 25 26  1  0  0  0
 32 33  1  0  0  0
 32 31  1  0  0  0
 29 30  1  0  0  0
 20 21  1  0  0  0
 20  2  1  0  0  0
  1  2  2  0  0  0
  2  3  1  0  0  0
  3  4  1  0  0  0
  4  5  1  0  0  0
  5  6  1  0  0  0
  6  7  1  0  0  0
  7  8  1  0  0  0
  8  9  1  0  0  0
  9 10  1  0  0  0
 10 11  2  0  0  0
 11 12  1  0  0  0
 12 13  1  0  0  0
 13 14  1  0  0  0
 14 15  1  0  0  0
 15 16  1  0  0  0
 16 17  1  0  0  0
 17 18  1  0  0  0
 18 19  1  0  0  0
M  CHG 1  28  -1
M  END
> <minimizedAffinity>
-7.76946

> <CNNscore>
0.9100270867

> <CNNaffinity>
6.9878754616

> <CNN_VS>
6.3591561317

> <CNNaffinity_variance>
0.2841420770

$$$$
/media/chris/experiments/cd1a-new-docking/inputs/ligands/4x6c_ligand.pdb


 37 36  0  0  0  0  0  0  0  0999 V2000
  -41.5268   58.3694   66.3856 O   0  0  0  0  0  0  0  0  0  0  0  0
  -41.9893   59.3862   65.9671 C   0  0  0  0  0  0  0  0  0  0  0  0
  -43.4519   59.6729   65.8682 C   0  0  0  0  0  0  0  0  0  0  0  0
  -44.0599   59.1985   64.5618 C   0  0  0  0  0  0  0  0  0  0  0  0
  -44.4509   57.7368   64.5904 C   0  0  0  0  0  0  0  0  0  0  0  0
  -45.0921   57.2852   65.8814 C   0  0  0  0  0  0  0  0  0  0  0  0
  -46.5991   57.3080   65.8551 C   0  0  0  0  0  0  0  0  0  0  0  0
  -47.1612   58.6275   66.3114 C   0  0  0  0  0  0  0  0  0  0  0  0
  -47.8949   59.4118   65.2641 C   0  0  0  0  0  0  0  0  0  0  0  0
  -49.3559   59.3684   65.4204 C   0  0  0  0  0  0  0  0  0  0  0  0
  -50.2731   59.4855   64.4856 C   0  0  0  0  0  0  0  0  0  0  0  0
  -50.0718   59.6691   63.0261 C   0  0  0  0  0  0  0  0  0  0  0  0
  -50.6135   58.5600   62.1475 C   0  0  0  0  0  0  0  0  0  0  0  0
  -49.6048   58.0654   61.1475 C   0  0  0  0  0  0  0  0  0  0  0  0
  -50.1961   57.3662   59.9503 C   0  0  0  0  0  0  0  0  0  0  0  0
  -49.1642   57.0604   58.8871 C   0  0  0  0  0  0  0  0  0  0  0  0
  -48.3214   55.8445   59.1537 C   0  0  0  0  0  0  0  0  0  0  0  0
  -47.0919   55.7990   58.3378 C   0  0  0  0  0  0  0  0  0  0  0  0
  -47.0380   56.8381   57.3114 C   0  0  0  0  0  0  0  0  0  0  0  0
  -41.2563   60.4063   65.5213 O   0  0  0  0  0  0  0  0  0  0  0  0
  -39.8546   60.4246   65.8717 C   0  0  0  0  0  0  0  0  0  0  0  0
  -39.1786   61.4087   64.9448 C   0  0  0  0  0  0  0  0  0  0  0  0
  -38.4753   62.3829   65.7157 O   0  0  0  0  0  0  0  0  0  0  0  0
  -37.7702   61.9482   66.2206 H   0  0  0  0  0  0  0  0  0  0  0  0
  -38.2147   60.7973   63.9570 C   0  0  0  0  0  0  0  0  0  0  0  0
  -38.8640   59.6835   63.3116 O   0  0  0  0  0  0  0  0  0  0  0  0
  -38.1987   58.2404   63.3760 P   0  0  0  0  0  0  0  0  0  0  0  0
  -39.0776   57.3954   64.2093 O   0  0  0  0  0  0  0  0  0  0  0  0
  -37.9204   57.8356   61.9840 O   0  0  0  0  0  0  0  0  0  0  0  0
  -38.7565   57.7451   61.5004 H   0  0  0  0  0  0  0  0  0  0  0  0
  -36.8006   58.3721   64.1144 O   0  0  0  0  0  0  0  0  0  0  0  0
  -35.8451   57.2881   64.0394 C   0  0  0  0  0  0  0  0  0  0  0  0
  -34.6095   57.7745   64.7620 C   0  0  0  0  0  0  0  0  0  0  0  0
  -33.6094   58.5515   63.9291 N   0  0  0  0  0  0  0  0  0  0  0  0
  -32.2093   58.2837   64.3796 C   0  0  0  0  0  0  0  0  0  0  0  0
  -33.8811   60.0160   64.0585 C   0  0  0  0  0  0  0  0  0  0  0  0
  -33.7346   58.1510   62.4927 C   0  0  0  0  0  0  0  0  0  0  0  0
 34 33  1  0  0  0
 34 35  1  0  0  0
 34 36  1  0  0  0
 34 37  1  0  0  0
 22 23  1  0  0  0
 22 25  1  0  0  0
 22 21  1  0  0  0
 23 24  1  0  0  0
 27 26  1  0  0  0
 27 28  2  0  0  0
 27 31  1  0  0  0
 27 29  1  0  0  0
 25 26  1  0  0  0
 32 33  1  0  0  0
 32 31  1  0  0  0
 29 30  1  0  0  0
 20 21  1  0  0  0
 20  2  1  0  0  0
  1  2  2  0  0  0
  2  3  1  0  0  0
  3  4  1  0  0  0
  4  5  1  0  0  0
  5  6  1  0  0  0
  6  7  1  0  0  0
  7  8  1  0  0  0
  8  9  1  0  0  0
  9 10  1  0  0  0
 10 11  2  0  0  0
 11 12  1  0  0  0
 12 13  1  0  0  0
 13 14  1  0  0  0
 14 15  1  0  0  0
 15 16  1  0  0  0
 16 17  1  0  0  0
 17 18  1  0  0  0
 18 19  1  0  0  0
M  CHG 1  28  -1
M  END
> <minimizedAffinity>
-7.65350

> <CNNscore>
0.8512109518

> <CNNaffinity>
6.8469719887

> <CNN_VS>
5.8282175064

> <CNNaffinity_variance>
0.8114007711

$$$$
/media/chris/experiments/cd1a-new-docking/inputs/ligands/4x6c_ligand.pdb


 37 36  0  0  0  0  0  0  0  0999 V2000
  -42.6143   58.1671   65.7380 O   0  0  0  0  0  0  0  0  0  0  0  0
  -43.1599   59.2218   65.6234 C   0  0  0  0  0  0  0  0  0  0  0  0
  -44.5721   59.3990   65.1703 C   0  0  0  0  0  0  0  0  0  0  0  0
  -45.1820   58.1219   64.6240 C   0  0  0  0  0  0  0  0  0  0  0  0
  -46.4239   57.6936   65.3755 C   0  0  0  0  0  0  0  0  0  0  0  0
  -47.7219   58.0006   64.6665 C   0  0  0  0  0  0  0  0  0  0  0  0
  -48.5939   58.9931   65.3923 C   0  0  0  0  0  0  0  0  0  0  0  0
  -48.4609   60.3864   64.8388 C   0  0  0  0  0  0  0  0  0  0  0  0
  -48.9603   60.5728   63.4367 C   0  0  0  0  0  0  0  0  0  0  0  0
  -50.4111   60.3764   63.3039 C   0  0  0  0  0  0  0  0  0  0  0  0
  -51.0421   59.4150   62.6664 C   0  0  0  0  0  0  0  0  0  0  0  0
  -50.4539   58.2651   61.9343 C   0  0  0  0  0  0  0  0  0  0  0  0
  -49.8677   58.5872   60.5749 C   0  0  0  0  0  0  0  0  0  0  0  0
  -49.8699   57.4045   59.6458 C   0  0  0  0  0  0  0  0  0  0  0  0
  -49.0839   56.2161   60.1377 C   0  0  0  0  0  0  0  0  0  0  0  0
  -48.2561   55.5741   59.0463 C   0  0  0  0  0  0  0  0  0  0  0  0
  -46.9364   56.2417   58.7767 C   0  0  0  0  0  0  0  0  0  0  0  0
  -46.9545   57.1025   57.5776 C   0  0  0  0  0  0  0  0  0  0  0  0
  -47.3176   56.3875   56.3556 C   0  0  0  0  0  0  0  0  0  0  0  0
  -42.5743   60.3915   65.8791 O   0  0  0  0  0  0  0  0  0  0  0  0
  -41.1312   60.4147   65.9485 C   0  0  0  0  0  0  0  0  0  0  0  0
  -40.6600   61.5079   65.0171 C   0  0  0  0  0  0  0  0  0  0  0  0
  -39.3375   61.9050   65.3798 O   0  0  0  0  0  0  0  0  0  0  0  0
  -38.7311   61.1576   65.2594 H   0  0  0  0  0  0  0  0  0  0  0  0
  -40.6626   61.1441   63.5521 C   0  0  0  0  0  0  0  0  0  0  0  0
  -39.4468   60.4285   63.2549 O   0  0  0  0  0  0  0  0  0  0  0  0
  -38.8008   60.5434   61.8062 P   0  0  0  0  0  0  0  0  0  0  0  0
  -39.8908   60.8915   60.8725 O   0  0  0  0  0  0  0  0  0  0  0  0
  -37.6402   61.4475   61.9262 O   0  0  0  0  0  0  0  0  0  0  0  0
  -37.9453   62.3339   62.1757 H   0  0  0  0  0  0  0  0  0  0  0  0
  -38.2425   59.1154   61.3981 O   0  0  0  0  0  0  0  0  0  0  0  0
  -37.8368   58.1830   62.4276 C   0  0  0  0  0  0  0  0  0  0  0  0
  -36.4155   58.5537   62.7852 C   0  0  0  0  0  0  0  0  0  0  0  0
  -36.0479   58.4582   64.2526 N   0  0  0  0  0  0  0  0  0  0  0  0
  -34.6338   58.0054   64.4256 C   0  0  0  0  0  0  0  0  0  0  0  0
  -36.9499   57.4779   64.9316 C   0  0  0  0  0  0  0  0  0  0  0  0
  -36.2029   59.8001   64.8966 C   0  0  0  0  0  0  0  0  0  0  0  0
 34 33  1  0  0  0
 34 35  1  0  0  0
 34 36  1  0  0  0
 34 37  1  0  0  0
 22 23  1  0  0  0
 22 25  1  0  0  0
 22 21  1  0  0  0
 23 24  1  0  0  0
 27 26  1  0  0  0
 27 28  2  0  0  0
 27 31  1  0  0  0
 27 29  1  0  0  0
 25 26  1  0  0  0
 32 33  1  0  0  0
 32 31  1  0  0  0
 29 30  1  0  0  0
 20 21  1  0  0  0
 20  2  1  0  0  0
  1  2  2  0  0  0
  2  3  1  0  0  0
  3  4  1  0  0  0
  4  5  1  0  0  0
  5  6  1  0  0  0
  6  7  1  0  0  0
  7  8  1  0  0  0
  8  9  1  0  0  0
  9 10  1  0  0  0
 10 11  2  0  0  0
 11 12  1  0  0  0
 12 13  1  0  0  0
 13 14  1  0  0  0
 14 15  1  0  0  0
 15 16  1  0  0  0
 16 17  1  0  0  0
 17 18  1  0  0  0
 18 19  1  0  0  0
M  CHG 1  28  -1
M  END
> <minimizedAffinity>
-8.31629

> <CNNscore>
0.8355100155

> <CNNaffinity>
6.9886450768

> <CNN_VS>
5.8390831947

> <CNNaffinity_variance>
0.3770287633

$$$$
/media/chris/experiments/cd1a-new-docking/inputs/ligands/4x6c_ligand.pdb


 37 36  0  0  0  0  0  0  0  0999 V2000
  -43.3631   56.8382   65.6659 O   0  0  0  0  0  0  0  0  0  0  0  0
  -44.1533   57.7302   65.6108 C   0  0  0  0  0  0  0  0  0  0  0  0
  -45.6359   57.5487   65.6147 C   0  0  0  0  0  0  0  0  0  0  0  0
  -46.3914   58.8605   65.7132 C   0  0  0  0  0  0  0  0  0  0  0  0
  -47.6322   58.8923   64.8474 C   0  0  0  0  0  0  0  0  0  0  0  0
  -48.6387   57.8088   65.1554 C   0  0  0  0  0  0  0  0  0  0  0  0
  -50.0568   58.3071   65.2683 C   0  0  0  0  0  0  0  0  0  0  0  0
  -50.1751   59.7760   64.9620 C   0  0  0  0  0  0  0  0  0  0  0  0
  -51.0432   60.1213   63.7885 C   0  0  0  0  0  0  0  0  0  0  0  0
  -50.3020   60.2132   62.5223 C   0  0  0  0  0  0  0  0  0  0  0  0
  -50.0474   59.2514   61.6626 C   0  0  0  0  0  0  0  0  0  0  0  0
  -50.4616   57.8276   61.7356 C   0  0  0  0  0  0  0  0  0  0  0  0
  -50.8470   57.1911   60.4158 C   0  0  0  0  0  0  0  0  0  0  0  0
  -49.6705   56.9944   59.4997 C   0  0  0  0  0  0  0  0  0  0  0  0
  -48.7545   55.8615   59.8859 C   0  0  0  0  0  0  0  0  0  0  0  0
  -47.7941   55.4868   58.7787 C   0  0  0  0  0  0  0  0  0  0  0  0
  -46.7709   56.5365   58.4457 C   0  0  0  0  0  0  0  0  0  0  0  0
  -46.7499   56.8945   57.0137 C   0  0  0  0  0  0  0  0  0  0  0  0
  -47.8692   56.3341   56.2592 C   0  0  0  0  0  0  0  0  0  0  0  0
  -43.8149   59.0169   65.5297 O   0  0  0  0  0  0  0  0  0  0  0  0
  -42.4655   59.3277   65.1167 C   0  0  0  0  0  0  0  0  0  0  0  0
  -41.9952   60.4824   65.9710 C   0  0  0  0  0  0  0  0  0  0  0  0
  -42.4796   60.3167   67.3037 O   0  0  0  0  0  0  0  0  0  0  0  0
  -42.0973   59.5128   67.6891 H   0  0  0  0  0  0  0  0  0  0  0  0
  -40.4980   60.6661   66.0285 C   0  0  0  0  0  0  0  0  0  0  0  0
  -39.9124   60.0245   64.8778 O   0  0  0  0  0  0  0  0  0  0  0  0
  -38.7096   60.7287   64.1118 P   0  0  0  0  0  0  0  0  0  0  0  0
  -39.0021   60.6346   62.6673 O   0  0  0  0  0  0  0  0  0  0  0  0
  -38.5334   62.0598   64.7249 O   0  0  0  0  0  0  0  0  0  0  0  0
  -39.3267   62.5956   64.5680 H   0  0  0  0  0  0  0  0  0  0  0  0
  -37.3870   59.9011   64.3996 O   0  0  0  0  0  0  0  0  0  0  0  0
  -36.0975   60.4779   64.0860 C   0  0  0  0  0  0  0  0  0  0  0  0
  -35.1094   59.8148   65.0183 C   0  0  0  0  0  0  0  0  0  0  0  0
  -34.5318   58.4933   64.5516 N   0  0  0  0  0  0  0  0  0  0  0  0
  -35.4506   57.3593   64.8752 C   0  0  0  0  0  0  0  0  0  0  0  0
  -33.2203   58.2537   65.2283 C   0  0  0  0  0  0  0  0  0  0  0  0
  -34.3234   58.5326   63.0702 C   0  0  0  0  0  0  0  0  0  0  0  0
 34 33  1  0  0  0
 34 35  1  0  0  0
 34 36  1  0  0  0
 34 37  1  0  0  0
 22 23  1  0  0  0
 22 25  1  0  0  0
 22 21  1  0  0  0
 23 24  1  0  0  0
 27 26  1  0  0  0
 27 28  2  0  0  0
 27 31  1  0  0  0
 27 29  1  0  0  0
 25 26  1  0  0  0
 32 33  1  0  0  0
 32 31  1  0  0  0
 29 30  1  0  0  0
 20 21  1  0  0  0
 20  2  1  0  0  0
  1  2  2  0  0  0
  2  3  1  0  0  0
  3  4  1  0  0  0
  4  5  1  0  0  0
  5  6  1  0  0  0
  6  7  1  0  0  0
  7  8  1  0  0  0
  8  9  1  0  0  0
  9 10  1  0  0  0
 10 11  2  0  0  0
 11 12  1  0  0  0
 12 13  1  0  0  0
 13 14  1  0  0  0
 14 15  1  0  0  0
 15 16  1  0  0  0
 16 17  1  0  0  0
 17 18  1  0  0  0
 18 19  1  0  0  0
M  CHG 1  28  -1
M  END
> <minimizedAffinity>
-7.99692

> <CNNscore>
0.8222792149

> <CNNaffinity>
6.7076759338

> <CNN_VS>
5.5155825615

> <CNNaffinity_variance>
0.3516505659

$$$$
/media/chris/experiments/cd1a-new-docking/inputs/ligands/4x6c_ligand.pdb


 37 36  0  0  0  0  0  0  0  0999 V2000
  -42.2064   57.5428   65.7978 O   0  0  0  0  0  0  0  0  0  0  0  0
  -42.8266   58.5538   65.6702 C   0  0  0  0  0  0  0  0  0  0  0  0
  -44.1657   58.6482   65.0152 C   0  0  0  0  0  0  0  0  0  0  0  0
  -44.8662   57.3070   64.9069 C   0  0  0  0  0  0  0  0  0  0  0  0
  -46.1721   57.2609   65.6703 C   0  0  0  0  0  0  0  0  0  0  0  0
  -47.1699   58.3215   65.2686 C   0  0  0  0  0  0  0  0  0  0  0  0
  -48.3220   57.7970   64.4501 C   0  0  0  0  0  0  0  0  0  0  0  0
  -49.6568   58.1099   65.0713 C   0  0  0  0  0  0  0  0  0  0  0  0
  -49.9999   59.5675   65.1600 C   0  0  0  0  0  0  0  0  0  0  0  0
  -51.0627   59.9737   64.2292 C   0  0  0  0  0  0  0  0  0  0  0  0
  -50.9430   60.3202   62.9665 C   0  0  0  0  0  0  0  0  0  0  0  0
  -49.7067   60.3693   62.1459 C   0  0  0  0  0  0  0  0  0  0  0  0
  -49.7074   59.4921   60.9107 C   0  0  0  0  0  0  0  0  0  0  0  0
  -49.7480   58.0251   61.2395 C   0  0  0  0  0  0  0  0  0  0  0  0
  -50.2125   57.1398   60.1115 C   0  0  0  0  0  0  0  0  0  0  0  0
  -49.1794   57.0052   59.0145 C   0  0  0  0  0  0  0  0  0  0  0  0
  -48.2062   55.8740   59.1964 C   0  0  0  0  0  0  0  0  0  0  0  0
  -47.2419   55.7524   58.0853 C   0  0  0  0  0  0  0  0  0  0  0  0
  -46.8935   57.0347   57.4765 C   0  0  0  0  0  0  0  0  0  0  0  0
  -42.3995   59.7441   66.0917 O   0  0  0  0  0  0  0  0  0  0  0  0
  -41.0002   60.0544   65.9089 C   0  0  0  0  0  0  0  0  0  0  0  0
  -40.8544   60.6479   64.5265 C   0  0  0  0  0  0  0  0  0  0  0  0
  -40.8721   62.0727   64.6159 O   0  0  0  0  0  0  0  0  0  0  0  0
  -40.1062   62.3740   65.1292 H   0  0  0  0  0  0  0  0  0  0  0  0
  -39.6087   60.2335   63.7815 C   0  0  0  0  0  0  0  0  0  0  0  0
  -38.5195   60.1456   64.7219 O   0  0  0  0  0  0  0  0  0  0  0  0
  -37.4694   61.3358   64.8225 P   0  0  0  0  0  0  0  0  0  0  0  0
  -37.0922   61.6981   63.4414 O   0  0  0  0  0  0  0  0  0  0  0  0
  -38.0693   62.3623   65.6972 O   0  0  0  0  0  0  0  0  0  0  0  0
  -38.8678   62.7186   65.2771 H   0  0  0  0  0  0  0  0  0  0  0  0
  -36.1733   60.7919   65.5584 O   0  0  0  0  0  0  0  0  0  0  0  0
  -34.8626   61.1680   65.0741 C   0  0  0  0  0  0  0  0  0  0  0  0
  -34.4050   62.3053   65.9587 C   0  0  0  0  0  0  0  0  0  0  0  0
  -33.7959   63.4998   65.2516 N   0  0  0  0  0  0  0  0  0  0  0  0
  -34.8510   64.4695   64.8256 C   0  0  0  0  0  0  0  0  0  0  0  0
  -33.0536   63.0381   64.0387 C   0  0  0  0  0  0  0  0  0  0  0  0
  -32.8479   64.1990   66.1745 C   0  0  0  0  0  0  0  0  0  0  0  0
 34 33  1  0  0  0
 34 35  1  0  0  0
 34 36  1  0  0  0
 34 37  1  0  0  0
 22 23  1  0  0  0
 22 25  1  0  0  0
 22 21  1  0  0  0
 23 24  1  0  0  0
 27 26  1  0  0  0
 27 28  2  0  0  0
 27 31  1  0  0  0
 27 29  1  0  0  0
 25 26  1  0  0  0
 32 33  1  0  0  0
 32 31  1  0  0  0
 29 30  1  0  0  0
 20 21  1  0  0  0
 20  2  1  0  0  0
  1  2  2  0  0  0
  2  3  1  0  0  0
  3  4  1  0  0  0
  4  5  1  0  0  0
  5  6  1  0  0  0
  6  7  1  0  0  0
  7  8  1  0  0  0
  8  9  1  0  0  0
  9 10  1  0  0  0
 10 11  2  0  0  0
 11 12  1  0  0  0
 12 13  1  0  0  0
 13 14  1  0  0  0
 14 15  1  0  0  0
 15 16  1  0  0  0
 16 17  1  0  0  0
 17 18  1  0  0  0
 18 19  1  0  0  0
M  CHG 1  28  -1
M  END
> <minimizedAffinity>
-8.04804

> <CNNscore>
0.8144332170

> <CNNaffinity>
6.5329232216

> <CNN_VS>
5.3206295967

> <CNNaffinity_variance>
0.2931047380

$$$$
/media/chris/experiments/cd1a-new-docking/inputs/ligands/4x6c_ligand.pdb


 37 36  0  0  0  0  0  0  0  0999 V2000
  -41.8165   57.4762   65.6741 O   0  0  0  0  0  0  0  0  0  0  0  0
  -42.2771   58.5215   65.3303 C   0  0  0  0  0  0  0  0  0  0  0  0
  -43.7283   58.8692   65.3956 C   0  0  0  0  0  0  0  0  0  0  0  0
  -44.6102   57.8597   64.6852 C   0  0  0  0  0  0  0  0  0  0  0  0
  -45.6207   57.2095   65.6054 C   0  0  0  0  0  0  0  0  0  0  0  0
  -46.4804   58.1818   66.3782 C   0  0  0  0  0  0  0  0  0  0  0  0
  -47.4771   58.9258   65.5265 C   0  0  0  0  0  0  0  0  0  0  0  0
  -48.3453   57.9997   64.7178 C   0  0  0  0  0  0  0  0  0  0  0  0
  -49.8028   58.0101   65.0720 C   0  0  0  0  0  0  0  0  0  0  0  0
  -50.3410   59.3613   65.2855 C   0  0  0  0  0  0  0  0  0  0  0  0
  -50.9099   60.1539   64.4041 C   0  0  0  0  0  0  0  0  0  0  0  0
  -51.1774   59.8818   62.9693 C   0  0  0  0  0  0  0  0  0  0  0  0
  -50.0848   60.3061   62.0093 C   0  0  0  0  0  0  0  0  0  0  0  0
  -49.6835   59.2079   61.0632 C   0  0  0  0  0  0  0  0  0  0  0  0
  -50.4016   57.8999   61.2763 C   0  0  0  0  0  0  0  0  0  0  0  0
  -50.1347   56.9030   60.1701 C   0  0  0  0  0  0  0  0  0  0  0  0
  -48.7151   56.8696   59.6766 C   0  0  0  0  0  0  0  0  0  0  0  0
  -48.6122   56.8258   58.2046 C   0  0  0  0  0  0  0  0  0  0  0  0
  -47.2365   56.9012   57.7167 C   0  0  0  0  0  0  0  0  0  0  0  0
  -41.5529   59.5228   64.8308 O   0  0  0  0  0  0  0  0  0  0  0  0
  -41.1976   60.6008   65.7252 C   0  0  0  0  0  0  0  0  0  0  0  0
  -40.2268   61.4906   64.9834 C   0  0  0  0  0  0  0  0  0  0  0  0
  -39.5981   62.3814   65.9050 O   0  0  0  0  0  0  0  0  0  0  0  0
  -39.0748   61.8708   66.5424 H   0  0  0  0  0  0  0  0  0  0  0  0
  -39.1502   60.7617   64.2165 C   0  0  0  0  0  0  0  0  0  0  0  0
  -39.7189   60.2627   62.9892 O   0  0  0  0  0  0  0  0  0  0  0  0
  -38.9221   60.4397   61.6242 P   0  0  0  0  0  0  0  0  0  0  0  0
  -39.9235   60.6891   60.5677 O   0  0  0  0  0  0  0  0  0  0  0  0
  -37.8705   61.4458   61.8705 O   0  0  0  0  0  0  0  0  0  0  0  0
  -38.2819   62.3000   62.0757 H   0  0  0  0  0  0  0  0  0  0  0  0
  -38.1926   59.0697   61.2953 O   0  0  0  0  0  0  0  0  0  0  0  0
  -37.9644   58.1072   62.3514 C   0  0  0  0  0  0  0  0  0  0  0  0
  -36.4646   58.0318   62.5257 C   0  0  0  0  0  0  0  0  0  0  0  0
  -35.9389   58.2975   63.9224 N   0  0  0  0  0  0  0  0  0  0  0  0
  -36.9223   57.8611   64.9604 C   0  0  0  0  0  0  0  0  0  0  0  0
  -35.6843   59.7611   64.0910 C   0  0  0  0  0  0  0  0  0  0  0  0
  -34.6609   57.5468   64.1284 C   0  0  0  0  0  0  0  0  0  0  0  0
 34 33  1  0  0  0
 34 35  1  0  0  0
 34 36  1  0  0  0
 34 37  1  0  0  0
 22 23  1  0  0  0
 22 25  1  0  0  0
 22 21  1  0  0  0
 23 24  1  0  0  0
 27 26  1  0  0  0
 27 28  2  0  0  0
 27 31  1  0  0  0
 27 29  1  0  0  0
 25 26  1  0  0  0
 32 33  1  0  0  0
 32 31  1  0  0  0
 29 30  1  0  0  0
 20 21  1  0  0  0
 20  2  1  0  0  0
  1  2  2  0  0  0
  2  3  1  0  0  0
  3  4  1  0  0  0
  4  5  1  0  0  0
  5  6  1  0  0  0
  6  7  1  0  0  0
  7  8  1  0  0  0
  8  9  1  0  0  0
  9 10  1  0  0  0
 10 11  2  0  0  0
 11 12  1  0  0  0
 12 13  1  0  0  0
 13 14  1  0  0  0
 14 15  1  0  0  0
 15 16  1  0  0  0
 16 17  1  0  0  0
 17 18  1  0  0  0
 18 19  1  0  0  0
M  CHG 1  28  -1
M  END
> <minimizedAffinity>
-8.33211

> <CNNscore>
0.7498584390

> <CNNaffinity>
6.9018239975

> <CNN_VS>
5.1753911972

> <CNNaffinity_variance>
0.4581669867

$$$$
/media/chris/experiments/cd1a-new-docking/inputs/ligands/4x6c_ligand.pdb


 37 36  0  0  0  0  0  0  0  0999 V2000
  -43.3012   57.0862   65.5152 O   0  0  0  0  0  0  0  0  0  0  0  0
  -44.1915   57.8563   65.7083 C   0  0  0  0  0  0  0  0  0  0  0  0
  -45.6384   57.4865   65.7396 C   0  0  0  0  0  0  0  0  0  0  0  0
  -46.5563   58.6721   65.5088 C   0  0  0  0  0  0  0  0  0  0  0  0
  -47.6608   58.3777   64.5169 C   0  0  0  0  0  0  0  0  0  0  0  0
  -48.8282   57.6090   65.0896 C   0  0  0  0  0  0  0  0  0  0  0  0
  -50.0641   58.4453   65.3029 C   0  0  0  0  0  0  0  0  0  0  0  0
  -49.8896   59.8605   64.8212 C   0  0  0  0  0  0  0  0  0  0  0  0
  -50.7935   60.2745   63.6979 C   0  0  0  0  0  0  0  0  0  0  0  0
  -50.1046   60.3783   62.4035 C   0  0  0  0  0  0  0  0  0  0  0  0
  -49.8454   59.4160   61.5458 C   0  0  0  0  0  0  0  0  0  0  0  0
  -50.2012   57.9784   61.6508 C   0  0  0  0  0  0  0  0  0  0  0  0
  -50.8229   57.3673   60.4117 C   0  0  0  0  0  0  0  0  0  0  0  0
  -49.7974   56.9292   59.4024 C   0  0  0  0  0  0  0  0  0  0  0  0
  -48.7108   56.0419   59.9536 C   0  0  0  0  0  0  0  0  0  0  0  0
  -47.5006   55.9738   59.0484 C   0  0  0  0  0  0  0  0  0  0  0  0
  -47.3818   57.1034   58.0637 C   0  0  0  0  0  0  0  0  0  0  0  0
  -47.3023   56.6470   56.6621 C   0  0  0  0  0  0  0  0  0  0  0  0
  -47.4227   55.1977   56.5162 C   0  0  0  0  0  0  0  0  0  0  0  0
  -44.0121   59.1607   65.9156 O   0  0  0  0  0  0  0  0  0  0  0  0
  -42.8586   59.7813   65.3054 C   0  0  0  0  0  0  0  0  0  0  0  0
  -42.1288   60.5303   66.3968 C   0  0  0  0  0  0  0  0  0  0  0  0
  -41.6979   59.6100   67.3996 O   0  0  0  0  0  0  0  0  0  0  0  0
  -41.0599   58.9885   67.0154 H   0  0  0  0  0  0  0  0  0  0  0  0
  -40.9318   61.3256   65.9352 C   0  0  0  0  0  0  0  0  0  0  0  0
  -39.9160   60.4067   65.4852 O   0  0  0  0  0  0  0  0  0  0  0  0
  -38.4545   60.9454   65.1644 P   0  0  0  0  0  0  0  0  0  0  0  0
  -38.3378   62.2786   65.7891 O   0  0  0  0  0  0  0  0  0  0  0  0
  -37.5106   59.8812   65.5586 O   0  0  0  0  0  0  0  0  0  0  0  0
  -37.5616   59.7427   66.5174 H   0  0  0  0  0  0  0  0  0  0  0  0
  -38.3272   61.1268   63.5934 O   0  0  0  0  0  0  0  0  0  0  0  0
  -38.9378   60.1589   62.7079 C   0  0  0  0  0  0  0  0  0  0  0  0
  -37.8219   59.6386   61.8306 C   0  0  0  0  0  0  0  0  0  0  0  0
  -37.2451   58.2895   62.2111 N   0  0  0  0  0  0  0  0  0  0  0  0
  -35.9353   58.4427   62.9153 C   0  0  0  0  0  0  0  0  0  0  0  0
  -37.0318   57.4710   60.9783 C   0  0  0  0  0  0  0  0  0  0  0  0
  -38.1961   57.5757   63.1195 C   0  0  0  0  0  0  0  0  0  0  0  0
 34 33  1  0  0  0
 34 35  1  0  0  0
 34 36  1  0  0  0
 34 37  1  0  0  0
 22 23  1  0  0  0
 22 25  1  0  0  0
 22 21  1  0  0  0
 23 24  1  0  0  0
 27 26  1  0  0  0
 27 28  2  0  0  0
 27 31  1  0  0  0
 27 29  1  0  0  0
 25 26  1  0  0  0
 32 33  1  0  0  0
 32 31  1  0  0  0
 29 30  1  0  0  0
 20 21  1  0  0  0
 20  2  1  0  0  0
  1  2  2  0  0  0
  2  3  1  0  0  0
  3  4  1  0  0  0
  4  5  1  0  0  0
  5  6  1  0  0  0
  6  7  1  0  0  0
  7  8  1  0  0  0
  8  9  1  0  0  0
  9 10  1  0  0  0
 10 11  2  0  0  0
 11 12  1  0  0  0
 12 13  1  0  0  0
 13 14  1  0  0  0
 14 15  1  0  0  0
 15 16  1  0  0  0
 16 17  1  0  0  0
 17 18  1  0  0  0
 18 19  1  0  0  0
M  CHG 1  28  -1
M  END
> <minimizedAffinity>
-8.00460

> <CNNscore>
0.7477009892

> <CNNaffinity>
7.0072350502

> <CNN_VS>
5.2393164635

> <CNNaffinity_variance>
0.4099853635

$$$$
/media/chris/experiments/cd1a-new-docking/inputs/ligands/4x6c_ligand.pdb


 37 36  0  0  0  0  0  0  0  0999 V2000
  -41.7967   59.7844   66.9447 O   0  0  0  0  0  0  0  0  0  0  0  0
  -41.9910   59.4993   65.8028 C   0  0  0  0  0  0  0  0  0  0  0  0
  -43.2698   58.9338   65.2775 C   0  0  0  0  0  0  0  0  0  0  0  0
  -43.3709   57.4313   65.4613 C   0  0  0  0  0  0  0  0  0  0  0  0
  -44.7900   56.9179   65.3468 C   0  0  0  0  0  0  0  0  0  0  0  0
  -45.8167   57.9802   65.0316 C   0  0  0  0  0  0  0  0  0  0  0  0
  -47.2163   57.6233   65.4628 C   0  0  0  0  0  0  0  0  0  0  0  0
  -48.2573   58.1024   64.4870 C   0  0  0  0  0  0  0  0  0  0  0  0
  -49.6750   58.0340   64.9724 C   0  0  0  0  0  0  0  0  0  0  0  0
  -50.2807   59.3556   65.1905 C   0  0  0  0  0  0  0  0  0  0  0  0
  -50.8789   60.1265   64.3093 C   0  0  0  0  0  0  0  0  0  0  0  0
  -51.1187   59.8530   62.8698 C   0  0  0  0  0  0  0  0  0  0  0  0
  -49.9959   60.2510   61.9336 C   0  0  0  0  0  0  0  0  0  0  0  0
  -49.8111   59.2786   60.8012 C   0  0  0  0  0  0  0  0  0  0  0  0
  -49.9338   57.8278   61.1909 C   0  0  0  0  0  0  0  0  0  0  0  0
  -49.0490   56.9253   60.3594 C   0  0  0  0  0  0  0  0  0  0  0  0
  -49.1791   57.1061   58.8727 C   0  0  0  0  0  0  0  0  0  0  0  0
  -48.0221   56.5824   58.1199 C   0  0  0  0  0  0  0  0  0  0  0  0
  -47.1829   55.6769   58.9021 C   0  0  0  0  0  0  0  0  0  0  0  0
  -41.0824   59.6414   64.8379 O   0  0  0  0  0  0  0  0  0  0  0  0
  -39.7225   59.9226   65.2375 C   0  0  0  0  0  0  0  0  0  0  0  0
  -39.4488   61.3684   64.8920 C   0  0  0  0  0  0  0  0  0  0  0  0
  -39.9400   62.2086   65.9365 O   0  0  0  0  0  0  0  0  0  0  0  0
  -39.4553   62.0227   66.7559 H   0  0  0  0  0  0  0  0  0  0  0  0
  -37.9965   61.7044   64.6545 C   0  0  0  0  0  0  0  0  0  0  0  0
  -37.3235   61.7579   65.9284 O   0  0  0  0  0  0  0  0  0  0  0  0
  -35.8022   62.2167   65.9955 P   0  0  0  0  0  0  0  0  0  0  0  0
  -35.7283   63.5610   65.3886 O   0  0  0  0  0  0  0  0  0  0  0  0
  -35.3615   62.0327   67.3922 O   0  0  0  0  0  0  0  0  0  0  0  0
  -35.8661   62.6254   67.9712 H   0  0  0  0  0  0  0  0  0  0  0  0
  -34.9461   61.2260   65.0994 O   0  0  0  0  0  0  0  0  0  0  0  0
  -35.1987   59.8026   65.1619 C   0  0  0  0  0  0  0  0  0  0  0  0
  -34.9827   59.2818   63.7592 C   0  0  0  0  0  0  0  0  0  0  0  0
  -35.9479   58.2130   63.2861 N   0  0  0  0  0  0  0  0  0  0  0  0
  -35.2486   57.1843   62.4569 C   0  0  0  0  0  0  0  0  0  0  0  0
  -37.0243   58.8412   62.4602 C   0  0  0  0  0  0  0  0  0  0  0  0
  -36.5649   57.5355   64.4691 C   0  0  0  0  0  0  0  0  0  0  0  0
 34 33  1  0  0  0
 34 35  1  0  0  0
 34 36  1  0  0  0
 34 37  1  0  0  0
 22 23  1  0  0  0
 22 25  1  0  0  0
 22 21  1  0  0  0
 23 24  1  0  0  0
 27 26  1  0  0  0
 27 28  2  0  0  0
 27 31  1  0  0  0
 27 29  1  0  0  0
 25 26  1  0  0  0
 32 33  1  0  0  0
 32 31  1  0  0  0
 29 30  1  0  0  0
 20 21  1  0  0  0
 20  2  1  0  0  0
  1  2  2  0  0  0
  2  3  1  0  0  0
  3  4  1  0  0  0
  4  5  1  0  0  0
  5  6  1  0  0  0
  6  7  1  0  0  0
  7  8  1  0  0  0
  8  9  1  0  0  0
  9 10  1  0  0  0
 10 11  2  0  0  0
 11 12  1  0  0  0
 12 13  1  0  0  0
 13 14  1  0  0  0
 14 15  1  0  0  0
 15 16  1  0  0  0
 16 17  1  0  0  0
 17 18  1  0  0  0
 18 19  1  0  0  0
M  CHG 1  28  -1
M  END
> <minimizedAffinity>
-8.27135

> <CNNscore>
0.7382894158

> <CNNaffinity>
6.7287926674

> <CNN_VS>
4.9677963257

> <CNNaffinity_variance>
0.2265665978

$$$$
/media/chris/experiments/cd1a-new-docking/inputs/ligands/4x6c_ligand.pdb


 37 36  0  0  0  0  0  0  0  0999 V2000
  -42.2456   57.9526   65.9072 O   0  0  0  0  0  0  0  0  0  0  0  0
  -42.4128   59.1125   65.6843 C   0  0  0  0  0  0  0  0  0  0  0  0
  -43.7048   59.7094   65.2310 C   0  0  0  0  0  0  0  0  0  0  0  0
  -44.9158   59.0326   65.8449 C   0  0  0  0  0  0  0  0  0  0  0  0
  -45.7350   58.2603   64.8336 C   0  0  0  0  0  0  0  0  0  0  0  0
  -47.1853   58.6753   64.7544 C   0  0  0  0  0  0  0  0  0  0  0  0
  -48.1568   57.5451   64.9811 C   0  0  0  0  0  0  0  0  0  0  0  0
  -49.5635   58.0329   65.2015 C   0  0  0  0  0  0  0  0  0  0  0  0
  -49.7289   59.5232   65.2455 C   0  0  0  0  0  0  0  0  0  0  0  0
  -50.8411   60.0108   64.4172 C   0  0  0  0  0  0  0  0  0  0  0  0
  -50.8716   60.1611   63.1113 C   0  0  0  0  0  0  0  0  0  0  0  0
  -49.7989   59.8559   62.1313 C   0  0  0  0  0  0  0  0  0  0  0  0
  -50.1220   58.7686   61.1269 C   0  0  0  0  0  0  0  0  0  0  0  0
  -49.1573   57.6163   61.1870 C   0  0  0  0  0  0  0  0  0  0  0  0
  -49.4703   56.4835   60.2432 C   0  0  0  0  0  0  0  0  0  0  0  0
  -48.9593   56.7360   58.8418 C   0  0  0  0  0  0  0  0  0  0  0  0
  -47.4668   56.6459   58.6862 C   0  0  0  0  0  0  0  0  0  0  0  0
  -46.9861   57.1534   57.3859 C   0  0  0  0  0  0  0  0  0  0  0  0
  -47.5427   56.4350   56.2412 C   0  0  0  0  0  0  0  0  0  0  0  0
  -41.4588   60.0358   65.8036 O   0  0  0  0  0  0  0  0  0  0  0  0
  -40.5621   60.2177   64.6853 C   0  0  0  0  0  0  0  0  0  0  0  0
  -39.6879   61.4080   65.0070 C   0  0  0  0  0  0  0  0  0  0  0  0
  -40.3775   62.2758   65.9068 O   0  0  0  0  0  0  0  0  0  0  0  0
  -40.5356   61.8133   66.7446 H   0  0  0  0  0  0  0  0  0  0  0  0
  -38.3447   61.0704   65.6073 C   0  0  0  0  0  0  0  0  0  0  0  0
  -37.4961   62.2324   65.5161 O   0  0  0  0  0  0  0  0  0  0  0  0
  -36.0600   62.2131   66.1991 P   0  0  0  0  0  0  0  0  0  0  0  0
  -36.2519   61.7806   67.5981 O   0  0  0  0  0  0  0  0  0  0  0  0
  -35.1777   61.4245   65.3169 O   0  0  0  0  0  0  0  0  0  0  0  0
  -35.4915   60.5072   65.2821 H   0  0  0  0  0  0  0  0  0  0  0  0
  -35.5000   63.6975   66.2169 O   0  0  0  0  0  0  0  0  0  0  0  0
  -34.1042   63.9409   65.9235 C   0  0  0  0  0  0  0  0  0  0  0  0
  -34.0824   65.0823   64.9324 C   0  0  0  0  0  0  0  0  0  0  0  0
  -32.8086   65.2450   64.1269 N   0  0  0  0  0  0  0  0  0  0  0  0
  -31.8483   66.1601   64.8162 C   0  0  0  0  0  0  0  0  0  0  0  0
  -33.1351   65.8179   62.7850 C   0  0  0  0  0  0  0  0  0  0  0  0
  -32.1544   63.9110   63.9485 C   0  0  0  0  0  0  0  0  0  0  0  0
 34 33  1  0  0  0
 34 35  1  0  0  0
 34 36  1  0  0  0
 34 37  1  0  0  0
 22 23  1  0  0  0
 22 25  1  0  0  0
 22 21  1  0  0  0
 23 24  1  0  0  0
 27 26  1  0  0  0
 27 28  2  0  0  0
 27 31  1  0  0  0
 27 29  1  0  0  0
 25 26  1  0  0  0
 32 33  1  0  0  0
 32 31  1  0  0  0
 29 30  1  0  0  0
 20 21  1  0  0  0
 20  2  1  0  0  0
  1  2  2  0  0  0
  2  3  1  0  0  0
  3  4  1  0  0  0
  4  5  1  0  0  0
  5  6  1  0  0  0
  6  7  1  0  0  0
  7  8  1  0  0  0
  8  9  1  0  0  0
  9 10  1  0  0  0
 10 11  2  0  0  0
 11 12  1  0  0  0
 12 13  1  0  0  0
 13 14  1  0  0  0
 14 15  1  0  0  0
 15 16  1  0  0  0
 16 17  1  0  0  0
 17 18  1  0  0  0
 18 19  1  0  0  0
M  CHG 1  28  -1
M  END
> <minimizedAffinity>
-8.18123

> <CNNscore>
0.7351188660

> <CNNaffinity>
6.2600545883

> <CNN_VS>
4.6018843651

> <CNNaffinity_variance>
0.3781233132

$$$$
