/media/chris/experiments/cd1a-new-docking/inputs/ligands/4x6c_ligand.pdb


 37 36  0  0  0  0  0  0  0  0999 V2000
  -43.9581   59.8459   65.3274 O   0  0  0  0  0  0  0  0  0  0  0  0
  -43.1437   59.0212   65.6094 C   0  0  0  0  0  0  0  0  0  0  0  0
  -43.4249   57.5587   65.7243 C   0  0  0  0  0  0  0  0  0  0  0  0
  -44.6290   57.1229   64.9109 C   0  0  0  0  0  0  0  0  0  0  0  0
  -45.9008   57.0593   65.7287 C   0  0  0  0  0  0  0  0  0  0  0  0
  -47.0057   57.9658   65.2396 C   0  0  0  0  0  0  0  0  0  0  0  0
  -47.2765   59.1408   66.1441 C   0  0  0  0  0  0  0  0  0  0  0  0
  -48.5393   59.8713   65.7738 C   0  0  0  0  0  0  0  0  0  0  0  0
  -49.5968   59.0361   65.1149 C   0  0  0  0  0  0  0  0  0  0  0  0
  -50.6969   59.8295   64.5482 C   0  0  0  0  0  0  0  0  0  0  0  0
  -51.0280   59.9653   63.2830 C   0  0  0  0  0  0  0  0  0  0  0  0
  -50.3911   59.3348   62.0992 C   0  0  0  0  0  0  0  0  0  0  0  0
  -50.5910   57.8386   61.9694 C   0  0  0  0  0  0  0  0  0  0  0  0
  -50.8423   57.4067   60.5508 C   0  0  0  0  0  0  0  0  0  0  0  0
  -49.6170   57.3846   59.6731 C   0  0  0  0  0  0  0  0  0  0  0  0
  -48.8254   56.1029   59.8118 C   0  0  0  0  0  0  0  0  0  0  0  0
  -47.7877   55.8812   58.7470 C   0  0  0  0  0  0  0  0  0  0  0  0
  -47.8921   56.8357   57.6258 C   0  0  0  0  0  0  0  0  0  0  0  0
  -47.2458   56.3662   56.4019 C   0  0  0  0  0  0  0  0  0  0  0  0
  -41.8661   59.2989   65.8693 O   0  0  0  0  0  0  0  0  0  0  0  0
  -41.5686   60.5848   66.4574 C   0  0  0  0  0  0  0  0  0  0  0  0
  -40.7231   61.3434   65.4605 C   0  0  0  0  0  0  0  0  0  0  0  0
  -40.5093   62.6737   65.9326 O   0  0  0  0  0  0  0  0  0  0  0  0
  -40.0042   62.6458   66.7603 H   0  0  0  0  0  0  0  0  0  0  0  0
  -39.3800   60.7238   65.1597 C   0  0  0  0  0  0  0  0  0  0  0  0
  -38.7502   61.4819   64.1072 O   0  0  0  0  0  0  0  0  0  0  0  0
  -37.6048   60.8105   63.2317 P   0  0  0  0  0  0  0  0  0  0  0  0
  -37.6111   59.3670   63.5442 O   0  0  0  0  0  0  0  0  0  0  0  0
  -37.8215   61.2457   61.8379 O   0  0  0  0  0  0  0  0  0  0  0  0
  -38.6686   60.8975   61.5184 H   0  0  0  0  0  0  0  0  0  0  0  0
  -36.2107   61.4074   63.6981 O   0  0  0  0  0  0  0  0  0  0  0  0
  -36.1750   62.6438   64.4488 C   0  0  0  0  0  0  0  0  0  0  0  0
  -35.7044   63.7036   63.4788 C   0  0  0  0  0  0  0  0  0  0  0  0
  -34.4265   64.4300   63.8494 N   0  0  0  0  0  0  0  0  0  0  0  0
  -34.1923   65.6014   62.9505 C   0  0  0  0  0  0  0  0  0  0  0  0
  -33.2664   63.4949   63.7278 C   0  0  0  0  0  0  0  0  0  0  0  0
  -34.5199   64.9204   65.2602 C   0  0  0  0  0  0  0  0  0  0  0  0
 34 33  1  0  0  0
 34 35  1  0  0  0
 34 36  1  0  0  0
 34 37  1  0  0  0
 22 23  1  0  0  0
 22 25  1  0  0  0
 22 21  1  0  0  0
 23 24  1  0  0  0
 27 26  1  0  0  0
 27 28  2  0  0  0
 27 31  1  0  0  0
 27 29  1  0  0  0
 25 26  1  0  0  0
 32 33  1  0  0  0
 32 31  1  0  0  0
 29 30  1  0  0  0
 20 21  1  0  0  0
 20  2  1  0  0  0
  1  2  2  0  0  0
  2  3  1  0  0  0
  3  4  1  0  0  0
  4  5  1  0  0  0
  5  6  1  0  0  0
  6  7  1  0  0  0
  7  8  1  0  0  0
  8  9  1  0  0  0
  9 10  1  0  0  0
 10 11  2  0  0  0
 11 12  1  0  0  0
 12 13  1  0  0  0
 13 14  1  0  0  0
 14 15  1  0  0  0
 15 16  1  0  0  0
 16 17  1  0  0  0
 17 18  1  0  0  0
 18 19  1  0  0  0
M  CHG 1  28  -1
M  END
> <minimizedAffinity>
-8.31235

> <CNNscore>
0.8969447613

> <CNNaffinity>
6.7860870361

> <CNN_VS>
6.0867452621

> <CNNaffinity_variance>
0.6614052057

$$$$
/media/chris/experiments/cd1a-new-docking/inputs/ligands/4x6c_ligand.pdb


 37 36  0  0  0  0  0  0  0  0999 V2000
  -42.3787   58.0635   66.1368 O   0  0  0  0  0  0  0  0  0  0  0  0
  -42.8527   59.1455   65.9712 C   0  0  0  0  0  0  0  0  0  0  0  0
  -44.1406   59.4057   65.2607 C   0  0  0  0  0  0  0  0  0  0  0  0
  -44.7304   58.1579   64.6310 C   0  0  0  0  0  0  0  0  0  0  0  0
  -45.9133   57.6120   65.4013 C   0  0  0  0  0  0  0  0  0  0  0  0
  -47.2372   58.2489   65.0498 C   0  0  0  0  0  0  0  0  0  0  0  0
  -48.4090   57.3041   65.1286 C   0  0  0  0  0  0  0  0  0  0  0  0
  -49.7297   58.0261   65.1253 C   0  0  0  0  0  0  0  0  0  0  0  0
  -49.6474   59.5187   65.0021 C   0  0  0  0  0  0  0  0  0  0  0  0
  -50.8122   60.1132   64.3306 C   0  0  0  0  0  0  0  0  0  0  0  0
  -51.0845   60.1269   63.0445 C   0  0  0  0  0  0  0  0  0  0  0  0
  -50.2983   59.5259   61.9376 C   0  0  0  0  0  0  0  0  0  0  0  0
  -50.5608   58.0575   61.6724 C   0  0  0  0  0  0  0  0  0  0  0  0
  -49.5465   57.4437   60.7469 C   0  0  0  0  0  0  0  0  0  0  0  0
  -49.9695   57.3818   59.3015 C   0  0  0  0  0  0  0  0  0  0  0  0
  -48.8081   57.1280   58.3659 C   0  0  0  0  0  0  0  0  0  0  0  0
  -47.9344   55.9641   58.7423 C   0  0  0  0  0  0  0  0  0  0  0  0
  -47.0931   55.4844   57.6280 C   0  0  0  0  0  0  0  0  0  0  0  0
  -47.2773   56.2442   56.3932 C   0  0  0  0  0  0  0  0  0  0  0  0
  -42.2870   60.2757   66.3948 O   0  0  0  0  0  0  0  0  0  0  0  0
  -40.8513   60.3891   66.2762 C   0  0  0  0  0  0  0  0  0  0  0  0
  -40.5736   61.5356   65.3315 C   0  0  0  0  0  0  0  0  0  0  0  0
  -40.6206   62.7676   66.0514 O   0  0  0  0  0  0  0  0  0  0  0  0
  -39.9155   62.7800   66.7174 H   0  0  0  0  0  0  0  0  0  0  0  0
  -39.2525   61.4592   64.6052 C   0  0  0  0  0  0  0  0  0  0  0  0
  -38.2011   61.3059   65.5798 O   0  0  0  0  0  0  0  0  0  0  0  0
  -36.7555   61.8952   65.2763 P   0  0  0  0  0  0  0  0  0  0  0  0
  -36.8239   62.5503   63.9544 O   0  0  0  0  0  0  0  0  0  0  0  0
  -36.3629   62.6926   66.4548 O   0  0  0  0  0  0  0  0  0  0  0  0
  -36.9659   63.4464   66.5507 H   0  0  0  0  0  0  0  0  0  0  0  0
  -35.7383   60.6822   65.1707 O   0  0  0  0  0  0  0  0  0  0  0  0
  -36.2376   59.3471   64.9221 C   0  0  0  0  0  0  0  0  0  0  0  0
  -36.3611   59.2244   63.4204 C   0  0  0  0  0  0  0  0  0  0  0  0
  -37.4849   58.3436   62.9111 N   0  0  0  0  0  0  0  0  0  0  0  0
  -38.4032   57.9455   64.0216 C   0  0  0  0  0  0  0  0  0  0  0  0
  -36.9120   57.1062   62.2981 C   0  0  0  0  0  0  0  0  0  0  0  0
  -38.2751   59.0857   61.8794 C   0  0  0  0  0  0  0  0  0  0  0  0
 34 33  1  0  0  0
 34 35  1  0  0  0
 34 36  1  0  0  0
 34 37  1  0  0  0
 22 23  1  0  0  0
 22 25  1  0  0  0
 22 21  1  0  0  0
 23 24  1  0  0  0
 27 26  1  0  0  0
 27 28  2  0  0  0
 27 31  1  0  0  0
 27 29  1  0  0  0
 25 26  1  0  0  0
 32 33  1  0  0  0
 32 31  1  0  0  0
 29 30  1  0  0  0
 20 21  1  0  0  0
 20  2  1  0  0  0
  1  2  2  0  0  0
  2  3  1  0  0  0
  3  4  1  0  0  0
  4  5  1  0  0  0
  5  6  1  0  0  0
  6  7  1  0  0  0
  7  8  1  0  0  0
  8  9  1  0  0  0
  9 10  1  0  0  0
 10 11  2  0  0  0
 11 12  1  0  0  0
 12 13  1  0  0  0
 13 14  1  0  0  0
 14 15  1  0  0  0
 15 16  1  0  0  0
 16 17  1  0  0  0
 17 18  1  0  0  0
 18 19  1  0  0  0
M  CHG 1  28  -1
M  END
> <minimizedAffinity>
-8.31403

> <CNNscore>
0.8456881046

> <CNNaffinity>
7.1139822006

> <CNN_VS>
6.0162100792

> <CNNaffinity_variance>
0.4742493629

$$$$
/media/chris/experiments/cd1a-new-docking/inputs/ligands/4x6c_ligand.pdb


 37 36  0  0  0  0  0  0  0  0999 V2000
  -43.4833   59.9094   64.6373 O   0  0  0  0  0  0  0  0  0  0  0  0
  -42.8197   59.0593   65.1470 C   0  0  0  0  0  0  0  0  0  0  0  0
  -43.3616   57.7866   65.7106 C   0  0  0  0  0  0  0  0  0  0  0  0
  -44.4911   57.2065   64.8804 C   0  0  0  0  0  0  0  0  0  0  0  0
  -45.7769   57.0491   65.6629 C   0  0  0  0  0  0  0  0  0  0  0  0
  -46.3760   58.3472   66.1505 C   0  0  0  0  0  0  0  0  0  0  0  0
  -47.2877   59.0121   65.1510 C   0  0  0  0  0  0  0  0  0  0  0  0
  -48.2230   58.0360   64.4891 C   0  0  0  0  0  0  0  0  0  0  0  0
  -49.6176   58.0054   65.0406 C   0  0  0  0  0  0  0  0  0  0  0  0
  -50.1960   59.3424   65.2376 C   0  0  0  0  0  0  0  0  0  0  0  0
  -50.8080   60.0973   64.3521 C   0  0  0  0  0  0  0  0  0  0  0  0
  -51.0944   59.7868   62.9287 C   0  0  0  0  0  0  0  0  0  0  0  0
  -49.9804   60.1076   61.9533 C   0  0  0  0  0  0  0  0  0  0  0  0
  -49.8678   59.0957   60.8463 C   0  0  0  0  0  0  0  0  0  0  0  0
  -49.9626   57.6596   61.2942 C   0  0  0  0  0  0  0  0  0  0  0  0
  -49.2280   56.7127   60.3709 C   0  0  0  0  0  0  0  0  0  0  0  0
  -49.2072   57.1260   58.9258 C   0  0  0  0  0  0  0  0  0  0  0  0
  -48.0023   56.6669   58.2071 C   0  0  0  0  0  0  0  0  0  0  0  0
  -47.2717   55.6154   58.9118 C   0  0  0  0  0  0  0  0  0  0  0  0
  -41.4966   59.1369   65.2894 O   0  0  0  0  0  0  0  0  0  0  0  0
  -40.9818   60.1093   66.2261 C   0  0  0  0  0  0  0  0  0  0  0  0
  -40.0678   61.0306   65.4513 C   0  0  0  0  0  0  0  0  0  0  0  0
  -40.2532   62.3730   65.9006 O   0  0  0  0  0  0  0  0  0  0  0  0
  -39.9911   62.4414   66.8320 H   0  0  0  0  0  0  0  0  0  0  0  0
  -38.5985   60.6972   65.5421 C   0  0  0  0  0  0  0  0  0  0  0  0
  -37.8906   61.4699   64.5518 O   0  0  0  0  0  0  0  0  0  0  0  0
  -36.5477   62.2215   64.9533 P   0  0  0  0  0  0  0  0  0  0  0  0
  -36.6629   62.5803   66.3813 O   0  0  0  0  0  0  0  0  0  0  0  0
  -35.4299   61.3626   64.5153 O   0  0  0  0  0  0  0  0  0  0  0  0
  -35.4506   60.5280   65.0093 H   0  0  0  0  0  0  0  0  0  0  0  0
  -36.4627   63.5657   64.1149 O   0  0  0  0  0  0  0  0  0  0  0  0
  -35.1706   64.0863   63.7235 C   0  0  0  0  0  0  0  0  0  0  0  0
  -34.6160   64.7799   64.9470 C   0  0  0  0  0  0  0  0  0  0  0  0
  -33.1464   64.5491   65.2385 N   0  0  0  0  0  0  0  0  0  0  0  0
  -32.5842   63.4785   64.3596 C   0  0  0  0  0  0  0  0  0  0  0  0
  -32.9788   64.1334   66.6648 C   0  0  0  0  0  0  0  0  0  0  0  0
  -32.3833   65.8142   64.9998 C   0  0  0  0  0  0  0  0  0  0  0  0
 34 33  1  0  0  0
 34 35  1  0  0  0
 34 36  1  0  0  0
 34 37  1  0  0  0
 22 23  1  0  0  0
 22 25  1  0  0  0
 22 21  1  0  0  0
 23 24  1  0  0  0
 27 26  1  0  0  0
 27 28  2  0  0  0
 27 31  1  0  0  0
 27 29  1  0  0  0
 25 26  1  0  0  0
 32 33  1  0  0  0
 32 31  1  0  0  0
 29 30  1  0  0  0
 20 21  1  0  0  0
 20  2  1  0  0  0
  1  2  2  0  0  0
  2  3  1  0  0  0
  3  4  1  0  0  0
  4  5  1  0  0  0
  5  6  1  0  0  0
  6  7  1  0  0  0
  7  8  1  0  0  0
  8  9  1  0  0  0
  9 10  1  0  0  0
 10 11  2  0  0  0
 11 12  1  0  0  0
 12 13  1  0  0  0
 13 14  1  0  0  0
 14 15  1  0  0  0
 15 16  1  0  0  0
 16 17  1  0  0  0
 17 18  1  0  0  0
 18 19  1  0  0  0
M  CHG 1  28  -1
M  END
> <minimizedAffinity>
-8.19087

> <CNNscore>
0.8442224860

> <CNNaffinity>
6.4706983566

> <CNN_VS>
5.4627089500

> <CNNaffinity_variance>
0.2412393987

$$$$
/media/chris/experiments/cd1a-new-docking/inputs/ligands/4x6c_ligand.pdb


 37 36  0  0  0  0  0  0  0  0999 V2000
  -40.7370   61.6868   65.6449 O   0  0  0  0  0  0  0  0  0  0  0  0
  -41.4758   60.8796   65.1701 C   0  0  0  0  0  0  0  0  0  0  0  0
  -42.5553   60.1738   65.9234 C   0  0  0  0  0  0  0  0  0  0  0  0
  -43.7864   59.9049   65.0787 C   0  0  0  0  0  0  0  0  0  0  0  0
  -44.8672   59.1606   65.8325 C   0  0  0  0  0  0  0  0  0  0  0  0
  -46.2422   59.2585   65.2148 C   0  0  0  0  0  0  0  0  0  0  0  0
  -47.3242   59.6424   66.1916 C   0  0  0  0  0  0  0  0  0  0  0  0
  -48.6329   59.9405   65.5106 C   0  0  0  0  0  0  0  0  0  0  0  0
  -49.1898   58.8293   64.6708 C   0  0  0  0  0  0  0  0  0  0  0  0
  -50.4725   59.1650   64.0362 C   0  0  0  0  0  0  0  0  0  0  0  0
  -50.6741   59.6889   62.8473 C   0  0  0  0  0  0  0  0  0  0  0  0
  -49.6600   60.0569   61.8271 C   0  0  0  0  0  0  0  0  0  0  0  0
  -49.6246   59.1768   60.5944 C   0  0  0  0  0  0  0  0  0  0  0  0
  -50.3948   57.8972   60.7715 C   0  0  0  0  0  0  0  0  0  0  0  0
  -49.6408   56.6502   60.3860 C   0  0  0  0  0  0  0  0  0  0  0  0
  -48.9761   56.7676   59.0321 C   0  0  0  0  0  0  0  0  0  0  0  0
  -47.5061   56.4534   59.0189 C   0  0  0  0  0  0  0  0  0  0  0  0
  -46.8798   56.6578   57.6979 C   0  0  0  0  0  0  0  0  0  0  0  0
  -47.7960   56.4365   56.5809 C   0  0  0  0  0  0  0  0  0  0  0  0
  -41.4301   60.4914   63.8956 O   0  0  0  0  0  0  0  0  0  0  0  0
  -40.9469   61.4455   62.9240 C   0  0  0  0  0  0  0  0  0  0  0  0
  -39.9644   60.7160   62.0368 C   0  0  0  0  0  0  0  0  0  0  0  0
  -40.2510   61.0076   60.6689 O   0  0  0  0  0  0  0  0  0  0  0  0
  -40.1212   61.9550   60.5062 H   0  0  0  0  0  0  0  0  0  0  0  0
  -38.5117   61.0332   62.2966 C   0  0  0  0  0  0  0  0  0  0  0  0
  -38.2322   60.7953   63.6909 O   0  0  0  0  0  0  0  0  0  0  0  0
  -37.1820   61.7167   64.4507 P   0  0  0  0  0  0  0  0  0  0  0  0
  -36.5828   62.6131   63.4415 O   0  0  0  0  0  0  0  0  0  0  0  0
  -37.8868   62.3044   65.6069 O   0  0  0  0  0  0  0  0  0  0  0  0
  -38.6000   62.8815   65.2916 H   0  0  0  0  0  0  0  0  0  0  0  0
  -36.0321   60.7870   65.0256 O   0  0  0  0  0  0  0  0  0  0  0  0
  -35.3829   59.8290   64.1570 C   0  0  0  0  0  0  0  0  0  0  0  0
  -33.9117   60.1760   64.1844 C   0  0  0  0  0  0  0  0  0  0  0  0
  -32.9654   59.1225   63.6436 N   0  0  0  0  0  0  0  0  0  0  0  0
  -32.4790   58.2237   64.7346 C   0  0  0  0  0  0  0  0  0  0  0  0
  -31.7853   59.7877   63.0109 C   0  0  0  0  0  0  0  0  0  0  0  0
  -33.6725   58.2922   62.6189 C   0  0  0  0  0  0  0  0  0  0  0  0
 34 33  1  0  0  0
 34 35  1  0  0  0
 34 36  1  0  0  0
 34 37  1  0  0  0
 22 23  1  0  0  0
 22 25  1  0  0  0
 22 21  1  0  0  0
 23 24  1  0  0  0
 27 26  1  0  0  0
 27 28  2  0  0  0
 27 31  1  0  0  0
 27 29  1  0  0  0
 25 26  1  0  0  0
 32 33  1  0  0  0
 32 31  1  0  0  0
 29 30  1  0  0  0
 20 21  1  0  0  0
 20  2  1  0  0  0
  1  2  2  0  0  0
  2  3  1  0  0  0
  3  4  1  0  0  0
  4  5  1  0  0  0
  5  6  1  0  0  0
  6  7  1  0  0  0
  7  8  1  0  0  0
  8  9  1  0  0  0
  9 10  1  0  0  0
 10 11  2  0  0  0
 11 12  1  0  0  0
 12 13  1  0  0  0
 13 14  1  0  0  0
 14 15  1  0  0  0
 15 16  1  0  0  0
 16 17  1  0  0  0
 17 18  1  0  0  0
 18 19  1  0  0  0
M  CHG 1  28  -1
M  END
> <minimizedAffinity>
-7.96103

> <CNNscore>
0.8315232992

> <CNNaffinity>
6.7497773170

> <CNN_VS>
5.6125969887

> <CNNaffinity_variance>
0.6364284754

$$$$
/media/chris/experiments/cd1a-new-docking/inputs/ligands/4x6c_ligand.pdb


 37 36  0  0  0  0  0  0  0  0999 V2000
  -42.1461   60.2812   64.0816 O   0  0  0  0  0  0  0  0  0  0  0  0
  -41.6850   59.7689   65.0552 C   0  0  0  0  0  0  0  0  0  0  0  0
  -42.1864   58.4993   65.6616 C   0  0  0  0  0  0  0  0  0  0  0  0
  -43.6994   58.3906   65.6381 C   0  0  0  0  0  0  0  0  0  0  0  0
  -44.1860   56.9601   65.5520 C   0  0  0  0  0  0  0  0  0  0  0  0
  -45.6879   56.8057   65.5992 C   0  0  0  0  0  0  0  0  0  0  0  0
  -46.3694   57.7555   66.5508 C   0  0  0  0  0  0  0  0  0  0  0  0
  -47.3294   58.6794   65.8505 C   0  0  0  0  0  0  0  0  0  0  0  0
  -47.9656   58.1269   64.6096 C   0  0  0  0  0  0  0  0  0  0  0  0
  -49.4291   58.2642   64.5943 C   0  0  0  0  0  0  0  0  0  0  0  0
  -50.2225   58.3506   63.5495 C   0  0  0  0  0  0  0  0  0  0  0  0
  -49.8494   58.3090   62.1130 C   0  0  0  0  0  0  0  0  0  0  0  0
  -50.8245   57.5873   61.2055 C   0  0  0  0  0  0  0  0  0  0  0  0
  -50.1612   56.9973   59.9914 C   0  0  0  0  0  0  0  0  0  0  0  0
  -48.6613   56.8818   60.0874 C   0  0  0  0  0  0  0  0  0  0  0  0
  -48.1011   55.8106   59.1778 C   0  0  0  0  0  0  0  0  0  0  0  0
  -46.7865   56.1510   58.5331 C   0  0  0  0  0  0  0  0  0  0  0  0
  -46.9312   56.9801   57.3203 C   0  0  0  0  0  0  0  0  0  0  0  0
  -47.6816   56.3213   56.2532 C   0  0  0  0  0  0  0  0  0  0  0  0
  -40.6577   60.2701   65.7410 O   0  0  0  0  0  0  0  0  0  0  0  0
  -40.1939   61.5900   65.3796 C   0  0  0  0  0  0  0  0  0  0  0  0
  -38.6950   61.5016   65.2071 C   0  0  0  0  0  0  0  0  0  0  0  0
  -38.1314   60.7819   66.3038 O   0  0  0  0  0  0  0  0  0  0  0  0
  -38.4653   59.8712   66.2987 H   0  0  0  0  0  0  0  0  0  0  0  0
  -38.2368   60.8502   63.9249 C   0  0  0  0  0  0  0  0  0  0  0  0
  -37.5522   59.6242   64.2521 O   0  0  0  0  0  0  0  0  0  0  0  0
  -37.9314   58.2832   63.4857 P   0  0  0  0  0  0  0  0  0  0  0  0
  -39.1024   57.7062   64.1764 O   0  0  0  0  0  0  0  0  0  0  0  0
  -38.0372   58.6248   62.0535 O   0  0  0  0  0  0  0  0  0  0  0  0
  -38.7697   59.2472   61.9228 H   0  0  0  0  0  0  0  0  0  0  0  0
  -36.7224   57.2672   63.6374 O   0  0  0  0  0  0  0  0  0  0  0  0
  -35.5062   57.6928   64.2957 C   0  0  0  0  0  0  0  0  0  0  0  0
  -34.5986   58.2023   63.1992 C   0  0  0  0  0  0  0  0  0  0  0  0
  -33.3357   58.9092   63.6503 N   0  0  0  0  0  0  0  0  0  0  0  0
  -32.7604   58.2603   64.8680 C   0  0  0  0  0  0  0  0  0  0  0  0
  -33.6485   60.3354   63.9715 C   0  0  0  0  0  0  0  0  0  0  0  0
  -32.3164   58.8614   62.5557 C   0  0  0  0  0  0  0  0  0  0  0  0
 34 33  1  0  0  0
 34 35  1  0  0  0
 34 36  1  0  0  0
 34 37  1  0  0  0
 22 23  1  0  0  0
 22 25  1  0  0  0
 22 21  1  0  0  0
 23 24  1  0  0  0
 27 26  1  0  0  0
 27 28  2  0  0  0
 27 31  1  0  0  0
 27 29  1  0  0  0
 25 26  1  0  0  0
 32 33  1  0  0  0
 32 31  1  0  0  0
 29 30  1  0  0  0
 20 21  1  0  0  0
 20  2  1  0  0  0
  1  2  2  0  0  0
  2  3  1  0  0  0
  3  4  1  0  0  0
  4  5  1  0  0  0
  5  6  1  0  0  0
  6  7  1  0  0  0
  7  8  1  0  0  0
  8  9  1  0  0  0
  9 10  1  0  0  0
 10 11  2  0  0  0
 11 12  1  0  0  0
 12 13  1  0  0  0
 13 14  1  0  0  0
 14 15  1  0  0  0
 15 16  1  0  0  0
 16 17  1  0  0  0
 17 18  1  0  0  0
 18 19  1  0  0  0
M  CHG 1  28  -1
M  END
> <minimizedAffinity>
-7.81451

> <CNNscore>
0.8272290230

> <CNNaffinity>
6.8064146042

> <CNN_VS>
5.6304636002

> <CNNaffinity_variance>
1.1194310188

$$$$
/media/chris/experiments/cd1a-new-docking/inputs/ligands/4x6c_ligand.pdb


 37 36  0  0  0  0  0  0  0  0999 V2000
  -40.2481   61.9050   65.9466 O   0  0  0  0  0  0  0  0  0  0  0  0
  -40.0422   60.7509   65.7265 C   0  0  0  0  0  0  0  0  0  0  0  0
  -41.0982   59.7548   65.3747 C   0  0  0  0  0  0  0  0  0  0  0  0
  -42.4610   60.3876   65.1655 C   0  0  0  0  0  0  0  0  0  0  0  0
  -43.5378   59.3744   64.8424 C   0  0  0  0  0  0  0  0  0  0  0  0
  -43.3002   58.0010   65.4247 C   0  0  0  0  0  0  0  0  0  0  0  0
  -44.4099   57.0196   65.1462 C   0  0  0  0  0  0  0  0  0  0  0  0
  -45.5332   57.1254   66.1425 C   0  0  0  0  0  0  0  0  0  0  0  0
  -46.9135   57.1542   65.5561 C   0  0  0  0  0  0  0  0  0  0  0  0
  -47.3680   58.5065   65.2016 C   0  0  0  0  0  0  0  0  0  0  0  0
  -48.1003   58.8696   64.1718 C   0  0  0  0  0  0  0  0  0  0  0  0
  -48.6778   58.0056   63.1113 C   0  0  0  0  0  0  0  0  0  0  0  0
  -50.1556   58.2021   62.8416 C   0  0  0  0  0  0  0  0  0  0  0  0
  -50.5784   57.6650   61.5019 C   0  0  0  0  0  0  0  0  0  0  0  0
  -49.4729   57.0219   60.7042 C   0  0  0  0  0  0  0  0  0  0  0  0
  -49.5692   57.3272   59.2256 C   0  0  0  0  0  0  0  0  0  0  0  0
  -48.2708   57.2339   58.4739 C   0  0  0  0  0  0  0  0  0  0  0  0
  -48.2687   56.1737   57.4466 C   0  0  0  0  0  0  0  0  0  0  0  0
  -47.4784   56.5124   56.2647 C   0  0  0  0  0  0  0  0  0  0  0  0
  -38.8333   60.1910   65.7736 O   0  0  0  0  0  0  0  0  0  0  0  0
  -38.0046   60.2914   64.5942 C   0  0  0  0  0  0  0  0  0  0  0  0
  -36.9246   61.3047   64.8960 C   0  0  0  0  0  0  0  0  0  0  0  0
  -37.4622   62.6222   64.7797 O   0  0  0  0  0  0  0  0  0  0  0  0
  -38.1552   62.7486   65.4465 H   0  0  0  0  0  0  0  0  0  0  0  0
  -36.2848   61.1704   66.2566 C   0  0  0  0  0  0  0  0  0  0  0  0
  -35.0193   61.8611   66.2388 O   0  0  0  0  0  0  0  0  0  0  0  0
  -34.8251   63.1694   67.1220 P   0  0  0  0  0  0  0  0  0  0  0  0
  -35.4412   64.2879   66.3800 O   0  0  0  0  0  0  0  0  0  0  0  0
  -35.3162   62.8475   68.4764 O   0  0  0  0  0  0  0  0  0  0  0  0
  -36.2681   62.6642   68.4401 H   0  0  0  0  0  0  0  0  0  0  0  0
  -33.2699   63.4587   67.2435 O   0  0  0  0  0  0  0  0  0  0  0  0
  -32.7421   64.7352   66.8126 C   0  0  0  0  0  0  0  0  0  0  0  0
  -31.6679   64.4174   65.7974 C   0  0  0  0  0  0  0  0  0  0  0  0
  -31.7999   65.0966   64.4486 N   0  0  0  0  0  0  0  0  0  0  0  0
  -33.2234   65.1167   63.9923 C   0  0  0  0  0  0  0  0  0  0  0  0
  -30.9839   64.3597   63.4356 C   0  0  0  0  0  0  0  0  0  0  0  0
  -31.3089   66.5068   64.5473 C   0  0  0  0  0  0  0  0  0  0  0  0
 34 33  1  0  0  0
 34 35  1  0  0  0
 34 36  1  0  0  0
 34 37  1  0  0  0
 22 23  1  0  0  0
 22 25  1  0  0  0
 22 21  1  0  0  0
 23 24  1  0  0  0
 27 26  1  0  0  0
 27 28  2  0  0  0
 27 31  1  0  0  0
 27 29  1  0  0  0
 25 26  1  0  0  0
 32 33  1  0  0  0
 32 31  1  0  0  0
 29 30  1  0  0  0
 20 21  1  0  0  0
 20  2  1  0  0  0
  1  2  2  0  0  0
  2  3  1  0  0  0
  3  4  1  0  0  0
  4  5  1  0  0  0
  5  6  1  0  0  0
  6  7  1  0  0  0
  7  8  1  0  0  0
  8  9  1  0  0  0
  9 10  1  0  0  0
 10 11  2  0  0  0
 11 12  1  0  0  0
 12 13  1  0  0  0
 13 14  1  0  0  0
 14 15  1  0  0  0
 15 16  1  0  0  0
 16 17  1  0  0  0
 17 18  1  0  0  0
 18 19  1  0  0  0
M  CHG 1  28  -1
M  END
> <minimizedAffinity>
-7.89984

> <CNNscore>
0.7643461823

> <CNNaffinity>
6.4105119705

> <CNN_VS>
4.8998503685

> <CNNaffinity_variance>
0.4818239212

$$$$
/media/chris/experiments/cd1a-new-docking/inputs/ligands/4x6c_ligand.pdb


 37 36  0  0  0  0  0  0  0  0999 V2000
  -42.0674   58.1159   66.1150 O   0  0  0  0  0  0  0  0  0  0  0  0
  -42.6963   58.9960   65.6123 C   0  0  0  0  0  0  0  0  0  0  0  0
  -43.8997   58.7913   64.7514 C   0  0  0  0  0  0  0  0  0  0  0  0
  -44.6451   57.5098   65.0731 C   0  0  0  0  0  0  0  0  0  0  0  0
  -45.9280   57.7507   65.8391 C   0  0  0  0  0  0  0  0  0  0  0  0
  -46.3870   59.1897   65.8547 C   0  0  0  0  0  0  0  0  0  0  0  0
  -47.5915   59.4555   64.9883 C   0  0  0  0  0  0  0  0  0  0  0  0
  -48.3086   58.1909   64.5985 C   0  0  0  0  0  0  0  0  0  0  0  0
  -49.7523   58.1194   64.9995 C   0  0  0  0  0  0  0  0  0  0  0  0
  -50.3704   59.4396   65.1896 C   0  0  0  0  0  0  0  0  0  0  0  0
  -50.9604   60.1937   64.2886 C   0  0  0  0  0  0  0  0  0  0  0  0
  -51.1760   59.8985   62.8495 C   0  0  0  0  0  0  0  0  0  0  0  0
  -50.0151   60.2290   61.9339 C   0  0  0  0  0  0  0  0  0  0  0  0
  -49.8435   59.2249   60.8274 C   0  0  0  0  0  0  0  0  0  0  0  0
  -49.9194   57.7850   61.2667 C   0  0  0  0  0  0  0  0  0  0  0  0
  -49.5741   56.8187   60.1550 C   0  0  0  0  0  0  0  0  0  0  0  0
  -48.6385   57.3622   59.1115 C   0  0  0  0  0  0  0  0  0  0  0  0
  -48.1293   56.3264   58.1911 C   0  0  0  0  0  0  0  0  0  0  0  0
  -47.1652   56.8373   57.2187 C   0  0  0  0  0  0  0  0  0  0  0  0
  -42.4012   60.2889   65.7468 O   0  0  0  0  0  0  0  0  0  0  0  0
  -41.0873   60.6256   66.2448 C   0  0  0  0  0  0  0  0  0  0  0  0
  -40.2815   61.1253   65.0678 C   0  0  0  0  0  0  0  0  0  0  0  0
  -39.4655   62.2217   65.4807 O   0  0  0  0  0  0  0  0  0  0  0  0
  -38.8271   61.9175   66.1447 H   0  0  0  0  0  0  0  0  0  0  0  0
  -39.3954   60.0920   64.4154 C   0  0  0  0  0  0  0  0  0  0  0  0
  -39.8472   59.8891   63.0613 O   0  0  0  0  0  0  0  0  0  0  0  0
  -38.9999   60.4811   61.8526 P   0  0  0  0  0  0  0  0  0  0  0  0
  -39.9632   60.9174   60.8216 O   0  0  0  0  0  0  0  0  0  0  0  0
  -38.0662   61.4688   62.4285 O   0  0  0  0  0  0  0  0  0  0  0  0
  -38.5695   62.2034   62.8135 H   0  0  0  0  0  0  0  0  0  0  0  0
  -38.1236   59.3086   61.2407 O   0  0  0  0  0  0  0  0  0  0  0  0
  -37.6714   58.2309   62.0939 C   0  0  0  0  0  0  0  0  0  0  0  0
  -36.2032   58.4900   62.3448 C   0  0  0  0  0  0  0  0  0  0  0  0
  -35.7469   58.4110   63.7882 N   0  0  0  0  0  0  0  0  0  0  0  0
  -34.3660   57.8466   63.8868 C   0  0  0  0  0  0  0  0  0  0  0  0
  -36.6784   57.5324   64.5599 C   0  0  0  0  0  0  0  0  0  0  0  0
  -35.7480   59.7812   64.3900 C   0  0  0  0  0  0  0  0  0  0  0  0
 34 33  1  0  0  0
 34 35  1  0  0  0
 34 36  1  0  0  0
 34 37  1  0  0  0
 22 23  1  0  0  0
 22 25  1  0  0  0
 22 21  1  0  0  0
 23 24  1  0  0  0
 27 26  1  0  0  0
 27 28  2  0  0  0
 27 31  1  0  0  0
 27 29  1  0  0  0
 25 26  1  0  0  0
 32 33  1  0  0  0
 32 31  1  0  0  0
 29 30  1  0  0  0
 20 21  1  0  0  0
 20  2  1  0  0  0
  1  2  2  0  0  0
  2  3  1  0  0  0
  3  4  1  0  0  0
  4  5  1  0  0  0
  5  6  1  0  0  0
  6  7  1  0  0  0
  7  8  1  0  0  0
  8  9  1  0  0  0
  9 10  1  0  0  0
 10 11  2  0  0  0
 11 12  1  0  0  0
 12 13  1  0  0  0
 13 14  1  0  0  0
 14 15  1  0  0  0
 15 16  1  0  0  0
 16 17  1  0  0  0
 17 18  1  0  0  0
 18 19  1  0  0  0
M  CHG 1  28  -1
M  END
> <minimizedAffinity>
-8.10937

> <CNNscore>
0.7627454400

> <CNNaffinity>
6.9283623695

> <CNN_VS>
5.2845768929

> <CNNaffinity_variance>
0.4390578270

$$$$
/media/chris/experiments/cd1a-new-docking/inputs/ligands/4x6c_ligand.pdb


 37 36  0  0  0  0  0  0  0  0999 V2000
  -41.9451   58.1627   66.1044 O   0  0  0  0  0  0  0  0  0  0  0  0
  -42.7033   58.9689   65.6595 C   0  0  0  0  0  0  0  0  0  0  0  0
  -43.8541   58.6449   64.7641 C   0  0  0  0  0  0  0  0  0  0  0  0
  -44.5518   57.3522   65.1432 C   0  0  0  0  0  0  0  0  0  0  0  0
  -45.8713   57.5799   65.8487 C   0  0  0  0  0  0  0  0  0  0  0  0
  -46.3786   59.0012   65.7844 C   0  0  0  0  0  0  0  0  0  0  0  0
  -47.5750   59.1822   64.8856 C   0  0  0  0  0  0  0  0  0  0  0  0
  -48.3496   57.9055   64.6969 C   0  0  0  0  0  0  0  0  0  0  0  0
  -49.8016   57.9725   65.0674 C   0  0  0  0  0  0  0  0  0  0  0  0
  -50.2907   59.3450   65.2621 C   0  0  0  0  0  0  0  0  0  0  0  0
  -50.8494   60.1380   64.3747 C   0  0  0  0  0  0  0  0  0  0  0  0
  -51.1523   59.8459   62.9508 C   0  0  0  0  0  0  0  0  0  0  0  0
  -50.0150   60.0846   61.9788 C   0  0  0  0  0  0  0  0  0  0  0  0
  -49.9673   59.0614   60.8774 C   0  0  0  0  0  0  0  0  0  0  0  0
  -49.8035   57.6385   61.3469 C   0  0  0  0  0  0  0  0  0  0  0  0
  -49.8501   56.6418   60.2097 C   0  0  0  0  0  0  0  0  0  0  0  0
  -49.2412   57.1216   58.9218 C   0  0  0  0  0  0  0  0  0  0  0  0
  -47.8522   56.6605   58.7282 C   0  0  0  0  0  0  0  0  0  0  0  0
  -47.2681   57.0945   57.4608 C   0  0  0  0  0  0  0  0  0  0  0  0
  -42.6184   60.2777   65.8980 O   0  0  0  0  0  0  0  0  0  0  0  0
  -41.3631   60.7842   66.4037 C   0  0  0  0  0  0  0  0  0  0  0  0
  -40.3996   60.8233   65.2400 C   0  0  0  0  0  0  0  0  0  0  0  0
  -40.5794   62.0394   64.5140 O   0  0  0  0  0  0  0  0  0  0  0  0
  -40.3567   62.7921   65.0838 H   0  0  0  0  0  0  0  0  0  0  0  0
  -38.9420   60.7031   65.6131 C   0  0  0  0  0  0  0  0  0  0  0  0
  -38.2175   60.1933   64.4755 O   0  0  0  0  0  0  0  0  0  0  0  0
  -37.2729   61.1661   63.6445 P   0  0  0  0  0  0  0  0  0  0  0  0
  -37.5355   60.9072   62.2144 O   0  0  0  0  0  0  0  0  0  0  0  0
  -37.4826   62.5257   64.1797 O   0  0  0  0  0  0  0  0  0  0  0  0
  -38.3975   62.8016   64.0123 H   0  0  0  0  0  0  0  0  0  0  0  0
  -35.7663   60.7706   63.9462 O   0  0  0  0  0  0  0  0  0  0  0  0
  -35.3181   60.6460   65.3163 C   0  0  0  0  0  0  0  0  0  0  0  0
  -34.1854   61.6351   65.4728 C   0  0  0  0  0  0  0  0  0  0  0  0
  -34.4637   62.8374   66.3531 N   0  0  0  0  0  0  0  0  0  0  0  0
  -33.3064   63.1247   67.2548 C   0  0  0  0  0  0  0  0  0  0  0  0
  -35.6707   62.5726   67.1945 C   0  0  0  0  0  0  0  0  0  0  0  0
  -34.7128   64.0389   65.4964 C   0  0  0  0  0  0  0  0  0  0  0  0
 34 33  1  0  0  0
 34 35  1  0  0  0
 34 36  1  0  0  0
 34 37  1  0  0  0
 22 23  1  0  0  0
 22 25  1  0  0  0
 22 21  1  0  0  0
 23 24  1  0  0  0
 27 26  1  0  0  0
 27 28  2  0  0  0
 27 31  1  0  0  0
 27 29  1  0  0  0
 25 26  1  0  0  0
 32 33  1  0  0  0
 32 31  1  0  0  0
 29 30  1  0  0  0
 20 21  1  0  0  0
 20  2  1  0  0  0
  1  2  2  0  0  0
  2  3  1  0  0  0
  3  4  1  0  0  0
  4  5  1  0  0  0
  5  6  1  0  0  0
  6  7  1  0  0  0
  7  8  1  0  0  0
  8  9  1  0  0  0
  9 10  1  0  0  0
 10 11  2  0  0  0
 11 12  1  0  0  0
 12 13  1  0  0  0
 13 14  1  0  0  0
 14 15  1  0  0  0
 15 16  1  0  0  0
 16 17  1  0  0  0
 17 18  1  0  0  0
 18 19  1  0  0  0
M  CHG 1  28  -1
M  END
> <minimizedAffinity>
-7.73044

> <CNNscore>
0.7626476884

> <CNNaffinity>
6.5147523880

> <CNN_VS>
4.9684610367

> <CNNaffinity_variance>
0.2146240026

$$$$
/media/chris/experiments/cd1a-new-docking/inputs/ligands/4x6c_ligand.pdb


 37 36  0  0  0  0  0  0  0  0999 V2000
  -40.9422   60.8695   65.9033 O   0  0  0  0  0  0  0  0  0  0  0  0
  -41.8694   60.4468   65.2833 C   0  0  0  0  0  0  0  0  0  0  0  0
  -43.0405   59.7426   65.8864 C   0  0  0  0  0  0  0  0  0  0  0  0
  -44.0845   59.3464   64.8595 C   0  0  0  0  0  0  0  0  0  0  0  0
  -45.1264   58.3991   65.4139 C   0  0  0  0  0  0  0  0  0  0  0  0
  -46.4769   58.4916   64.7435 C   0  0  0  0  0  0  0  0  0  0  0  0
  -47.5739   58.9935   65.6472 C   0  0  0  0  0  0  0  0  0  0  0  0
  -48.3762   60.0997   65.0164 C   0  0  0  0  0  0  0  0  0  0  0  0
  -49.8419   59.8226   64.8580 C   0  0  0  0  0  0  0  0  0  0  0  0
  -50.4327   60.4678   63.6767 C   0  0  0  0  0  0  0  0  0  0  0  0
  -50.8435   59.8987   62.5649 C   0  0  0  0  0  0  0  0  0  0  0  0
  -50.8387   58.4541   62.2220 C   0  0  0  0  0  0  0  0  0  0  0  0
  -49.4938   57.8821   61.8228 C   0  0  0  0  0  0  0  0  0  0  0  0
  -49.2560   57.9376   60.3387 C   0  0  0  0  0  0  0  0  0  0  0  0
  -49.6379   56.6846   59.5928 C   0  0  0  0  0  0  0  0  0  0  0  0
  -48.4719   55.7380   59.4107 C   0  0  0  0  0  0  0  0  0  0  0  0
  -47.2100   56.3780   58.9031 C   0  0  0  0  0  0  0  0  0  0  0  0
  -47.2458   56.6664   57.4558 C   0  0  0  0  0  0  0  0  0  0  0  0
  -47.2950   55.4644   56.6257 C   0  0  0  0  0  0  0  0  0  0  0  0
  -41.9802   60.5406   63.9582 O   0  0  0  0  0  0  0  0  0  0  0  0
  -41.1433   61.5072   63.2849 C   0  0  0  0  0  0  0  0  0  0  0  0
  -40.2200   60.7344   62.3714 C   0  0  0  0  0  0  0  0  0  0  0  0
  -40.4693   61.1078   61.0161 O   0  0  0  0  0  0  0  0  0  0  0  0
  -40.2573   62.0465   60.8951 H   0  0  0  0  0  0  0  0  0  0  0  0
  -38.7475   60.9137   62.6510 C   0  0  0  0  0  0  0  0  0  0  0  0
  -38.6006   61.7047   63.8475 O   0  0  0  0  0  0  0  0  0  0  0  0
  -37.1959   61.7512   64.5919 P   0  0  0  0  0  0  0  0  0  0  0  0
  -37.4636   61.5703   66.0330 O   0  0  0  0  0  0  0  0  0  0  0  0
  -36.3128   60.7929   63.8984 O   0  0  0  0  0  0  0  0  0  0  0  0
  -36.6641   59.8949   64.0037 H   0  0  0  0  0  0  0  0  0  0  0  0
  -36.5738   63.1960   64.3859 O   0  0  0  0  0  0  0  0  0  0  0  0
  -35.2144   63.3302   63.9085 C   0  0  0  0  0  0  0  0  0  0  0  0
  -34.6639   64.5728   64.5706 C   0  0  0  0  0  0  0  0  0  0  0  0
  -33.2356   64.9407   64.2207 N   0  0  0  0  0  0  0  0  0  0  0  0
  -33.1887   65.8549   63.0387 C   0  0  0  0  0  0  0  0  0  0  0  0
  -32.4649   63.7013   63.8969 C   0  0  0  0  0  0  0  0  0  0  0  0
  -32.5960   65.6302   65.3848 C   0  0  0  0  0  0  0  0  0  0  0  0
 34 33  1  0  0  0
 34 35  1  0  0  0
 34 36  1  0  0  0
 34 37  1  0  0  0
 22 23  1  0  0  0
 22 25  1  0  0  0
 22 21  1  0  0  0
 23 24  1  0  0  0
 27 26  1  0  0  0
 27 28  2  0  0  0
 27 31  1  0  0  0
 27 29  1  0  0  0
 25 26  1  0  0  0
 32 33  1  0  0  0
 32 31  1  0  0  0
 29 30  1  0  0  0
 20 21  1  0  0  0
 20  2  1  0  0  0
  1  2  2  0  0  0
  2  3  1  0  0  0
  3  4  1  0  0  0
  4  5  1  0  0  0
  5  6  1  0  0  0
  6  7  1  0  0  0
  7  8  1  0  0  0
  8  9  1  0  0  0
  9 10  1  0  0  0
 10 11  2  0  0  0
 11 12  1  0  0  0
 12 13  1  0  0  0
 13 14  1  0  0  0
 14 15  1  0  0  0
 15 16  1  0  0  0
 16 17  1  0  0  0
 17 18  1  0  0  0
 18 19  1  0  0  0
M  CHG 1  28  -1
M  END
> <minimizedAffinity>
-7.71039

> <CNNscore>
0.7564558387

> <CNNaffinity>
6.5031013489

> <CNN_VS>
4.9193091393

> <CNNaffinity_variance>
1.0195525885

$$$$
