/media/chris/experiments/cd1a-new-docking/inputs/ligands/4x6c_ligand.pdb


 37 36  0  0  0  0  0  0  0  0999 V2000
  -43.3044   59.6826   64.4459 O   0  0  0  0  0  0  0  0  0  0  0  0
  -42.8481   58.9114   65.2333 C   0  0  0  0  0  0  0  0  0  0  0  0
  -43.4634   57.5961   65.5836 C   0  0  0  0  0  0  0  0  0  0  0  0
  -44.8663   57.4339   65.0295 C   0  0  0  0  0  0  0  0  0  0  0  0
  -45.9412   57.6790   66.0662 C   0  0  0  0  0  0  0  0  0  0  0  0
  -46.3440   59.1267   66.2205 C   0  0  0  0  0  0  0  0  0  0  0  0
  -47.7883   59.3974   65.8843 C   0  0  0  0  0  0  0  0  0  0  0  0
  -48.5082   58.1639   65.4093 C   0  0  0  0  0  0  0  0  0  0  0  0
  -49.9916   58.3090   65.2399 C   0  0  0  0  0  0  0  0  0  0  0  0
  -50.4210   59.6992   65.0304 C   0  0  0  0  0  0  0  0  0  0  0  0
  -50.9104   60.2383   63.9356 C   0  0  0  0  0  0  0  0  0  0  0  0
  -51.1778   59.5781   62.6329 C   0  0  0  0  0  0  0  0  0  0  0  0
  -49.9597   59.3167   61.7708 C   0  0  0  0  0  0  0  0  0  0  0  0
  -49.6688   57.8505   61.6049 C   0  0  0  0  0  0  0  0  0  0  0  0
  -49.9564   57.3033   60.2302 C   0  0  0  0  0  0  0  0  0  0  0  0
  -49.2591   55.9859   59.9711 C   0  0  0  0  0  0  0  0  0  0  0  0
  -47.9687   56.0919   59.2073 C   0  0  0  0  0  0  0  0  0  0  0  0
  -48.1316   56.6995   57.8719 C   0  0  0  0  0  0  0  0  0  0  0  0
  -46.8963   57.2714   57.3399 C   0  0  0  0  0  0  0  0  0  0  0  0
  -41.7239   59.1266   65.9163 O   0  0  0  0  0  0  0  0  0  0  0  0
  -41.5403   60.4331   66.5055 C   0  0  0  0  0  0  0  0  0  0  0  0
  -40.6393   61.2153   65.5777 C   0  0  0  0  0  0  0  0  0  0  0  0
  -40.6728   62.5972   65.9347 O   0  0  0  0  0  0  0  0  0  0  0  0
  -40.3141   62.7089   66.8290 H   0  0  0  0  0  0  0  0  0  0  0  0
  -39.1989   60.7644   65.5559 C   0  0  0  0  0  0  0  0  0  0  0  0
  -38.3577   61.9235   65.3900 O   0  0  0  0  0  0  0  0  0  0  0  0
  -36.7770   61.7656   65.4672 P   0  0  0  0  0  0  0  0  0  0  0  0
  -36.4447   61.4146   66.8627 O   0  0  0  0  0  0  0  0  0  0  0  0
  -36.3858   60.8455   64.3813 O   0  0  0  0  0  0  0  0  0  0  0  0
  -36.7703   59.9701   64.5451 H   0  0  0  0  0  0  0  0  0  0  0  0
  -36.1222   63.1748   65.1465 O   0  0  0  0  0  0  0  0  0  0  0  0
  -34.9320   63.5907   65.8564 C   0  0  0  0  0  0  0  0  0  0  0  0
  -34.4736   64.8653   65.1849 C   0  0  0  0  0  0  0  0  0  0  0  0
  -33.4724   64.7055   64.0580 N   0  0  0  0  0  0  0  0  0  0  0  0
  -32.4506   65.7963   64.0862 C   0  0  0  0  0  0  0  0  0  0  0  0
  -34.1856   64.7529   62.7448 C   0  0  0  0  0  0  0  0  0  0  0  0
  -32.7720   63.3899   64.1925 C   0  0  0  0  0  0  0  0  0  0  0  0
 34 33  1  0  0  0
 34 35  1  0  0  0
 34 36  1  0  0  0
 34 37  1  0  0  0
 22 23  1  0  0  0
 22 25  1  0  0  0
 22 21  1  0  0  0
 23 24  1  0  0  0
 27 26  1  0  0  0
 27 28  2  0  0  0
 27 31  1  0  0  0
 27 29  1  0  0  0
 25 26  1  0  0  0
 32 33  1  0  0  0
 32 31  1  0  0  0
 29 30  1  0  0  0
 20 21  1  0  0  0
 20  2  1  0  0  0
  1  2  2  0  0  0
  2  3  1  0  0  0
  3  4  1  0  0  0
  4  5  1  0  0  0
  5  6  1  0  0  0
  6  7  1  0  0  0
  7  8  1  0  0  0
  8  9  1  0  0  0
  9 10  1  0  0  0
 10 11  2  0  0  0
 11 12  1  0  0  0
 12 13  1  0  0  0
 13 14  1  0  0  0
 14 15  1  0  0  0
 15 16  1  0  0  0
 16 17  1  0  0  0
 17 18  1  0  0  0
 18 19  1  0  0  0
M  CHG 1  28  -1
M  END
> <minimizedAffinity>
-8.21860

> <CNNscore>
0.9110596180

> <CNNaffinity>
6.6493606567

> <CNN_VS>
6.0579638481

> <CNNaffinity_variance>
0.3763020933

$$$$
/media/chris/experiments/cd1a-new-docking/inputs/ligands/4x6c_ligand.pdb


 37 36  0  0  0  0  0  0  0  0999 V2000
  -41.9084   58.5932   66.0628 O   0  0  0  0  0  0  0  0  0  0  0  0
  -42.4842   59.4812   65.5126 C   0  0  0  0  0  0  0  0  0  0  0  0
  -43.9692   59.6409   65.4898 C   0  0  0  0  0  0  0  0  0  0  0  0
  -44.6786   58.4748   64.8277 C   0  0  0  0  0  0  0  0  0  0  0  0
  -44.9566   57.3347   65.7835 C   0  0  0  0  0  0  0  0  0  0  0  0
  -46.4210   57.0096   65.9613 C   0  0  0  0  0  0  0  0  0  0  0  0
  -47.3486   58.1170   65.5306 C   0  0  0  0  0  0  0  0  0  0  0  0
  -48.4390   57.6289   64.6151 C   0  0  0  0  0  0  0  0  0  0  0  0
  -49.8394   57.9029   65.0781 C   0  0  0  0  0  0  0  0  0  0  0  0
  -50.1340   59.3354   65.2272 C   0  0  0  0  0  0  0  0  0  0  0  0
  -50.6866   60.1431   64.3492 C   0  0  0  0  0  0  0  0  0  0  0  0
  -51.1774   59.8139   62.9872 C   0  0  0  0  0  0  0  0  0  0  0  0
  -50.2403   60.1702   61.8513 C   0  0  0  0  0  0  0  0  0  0  0  0
  -49.6641   58.9587   61.1715 C   0  0  0  0  0  0  0  0  0  0  0  0
  -50.5814   57.7634   61.1313 C   0  0  0  0  0  0  0  0  0  0  0  0
  -49.9875   56.5998   60.3684 C   0  0  0  0  0  0  0  0  0  0  0  0
  -48.5551   56.7817   59.9502 C   0  0  0  0  0  0  0  0  0  0  0  0
  -48.2697   56.2462   58.6046 C   0  0  0  0  0  0  0  0  0  0  0  0
  -46.9727   55.5794   58.5084 C   0  0  0  0  0  0  0  0  0  0  0  0
  -41.8741   60.4521   64.8330 O   0  0  0  0  0  0  0  0  0  0  0  0
  -40.9072   61.2579   65.5428 C   0  0  0  0  0  0  0  0  0  0  0  0
  -39.6798   61.3527   64.6658 C   0  0  0  0  0  0  0  0  0  0  0  0
  -38.7242   62.2200   65.2765 O   0  0  0  0  0  0  0  0  0  0  0  0
  -38.4339   61.8385   66.1197 H   0  0  0  0  0  0  0  0  0  0  0  0
  -39.0047   60.0360   64.3674 C   0  0  0  0  0  0  0  0  0  0  0  0
  -39.3132   59.6594   63.0103 O   0  0  0  0  0  0  0  0  0  0  0  0
  -38.6885   60.4856   61.8035 P   0  0  0  0  0  0  0  0  0  0  0  0
  -39.8155   60.9683   60.9801 O   0  0  0  0  0  0  0  0  0  0  0  0
  -37.7571   61.4668   62.3941 O   0  0  0  0  0  0  0  0  0  0  0  0
  -38.2533   62.0929   62.9444 H   0  0  0  0  0  0  0  0  0  0  0  0
  -37.8241   59.4925   60.9182 O   0  0  0  0  0  0  0  0  0  0  0  0
  -37.5607   58.1517   61.3943 C   0  0  0  0  0  0  0  0  0  0  0  0
  -36.0570   58.0391   61.5035 C   0  0  0  0  0  0  0  0  0  0  0  0
  -35.4920   57.9600   62.9079 N   0  0  0  0  0  0  0  0  0  0  0  0
  -35.4099   59.3156   63.5328 C   0  0  0  0  0  0  0  0  0  0  0  0
  -34.1185   57.3712   62.8620 C   0  0  0  0  0  0  0  0  0  0  0  0
  -36.3722   57.0952   63.7545 C   0  0  0  0  0  0  0  0  0  0  0  0
 34 33  1  0  0  0
 34 35  1  0  0  0
 34 36  1  0  0  0
 34 37  1  0  0  0
 22 23  1  0  0  0
 22 25  1  0  0  0
 22 21  1  0  0  0
 23 24  1  0  0  0
 27 26  1  0  0  0
 27 28  2  0  0  0
 27 31  1  0  0  0
 27 29  1  0  0  0
 25 26  1  0  0  0
 32 33  1  0  0  0
 32 31  1  0  0  0
 29 30  1  0  0  0
 20 21  1  0  0  0
 20  2  1  0  0  0
  1  2  2  0  0  0
  2  3  1  0  0  0
  3  4  1  0  0  0
  4  5  1  0  0  0
  5  6  1  0  0  0
  6  7  1  0  0  0
  7  8  1  0  0  0
  8  9  1  0  0  0
  9 10  1  0  0  0
 10 11  2  0  0  0
 11 12  1  0  0  0
 12 13  1  0  0  0
 13 14  1  0  0  0
 14 15  1  0  0  0
 15 16  1  0  0  0
 16 17  1  0  0  0
 17 18  1  0  0  0
 18 19  1  0  0  0
M  CHG 1  28  -1
M  END
> <minimizedAffinity>
-8.28002

> <CNNscore>
0.8774994016

> <CNNaffinity>
6.9895873070

> <CNN_VS>
6.1333584785

> <CNNaffinity_variance>
0.3637885153

$$$$
/media/chris/experiments/cd1a-new-docking/inputs/ligands/4x6c_ligand.pdb


 37 36  0  0  0  0  0  0  0  0999 V2000
  -42.3678   60.0212   67.0344 O   0  0  0  0  0  0  0  0  0  0  0  0
  -42.6943   59.8145   65.9058 C   0  0  0  0  0  0  0  0  0  0  0  0
  -44.0925   59.5219   65.4694 C   0  0  0  0  0  0  0  0  0  0  0  0
  -44.1950   58.2744   64.6123 C   0  0  0  0  0  0  0  0  0  0  0  0
  -44.8371   57.1120   65.3383 C   0  0  0  0  0  0  0  0  0  0  0  0
  -46.0434   57.4817   66.1688 C   0  0  0  0  0  0  0  0  0  0  0  0
  -47.3575   57.0806   65.5487 C   0  0  0  0  0  0  0  0  0  0  0  0
  -48.1122   58.2575   64.9912 C   0  0  0  0  0  0  0  0  0  0  0  0
  -49.6072   58.1544   65.0589 C   0  0  0  0  0  0  0  0  0  0  0  0
  -50.2736   59.4532   65.2321 C   0  0  0  0  0  0  0  0  0  0  0  0
  -50.9256   60.1543   64.3308 C   0  0  0  0  0  0  0  0  0  0  0  0
  -51.1777   59.8062   62.9097 C   0  0  0  0  0  0  0  0  0  0  0  0
  -50.1188   60.2634   61.9273 C   0  0  0  0  0  0  0  0  0  0  0  0
  -49.6193   59.1483   61.0504 C   0  0  0  0  0  0  0  0  0  0  0  0
  -50.2807   57.8151   61.2893 C   0  0  0  0  0  0  0  0  0  0  0  0
  -49.8876   56.7781   60.2603 C   0  0  0  0  0  0  0  0  0  0  0  0
  -48.4131   56.6901   59.9812 C   0  0  0  0  0  0  0  0  0  0  0  0
  -48.0885   55.8101   58.8414 C   0  0  0  0  0  0  0  0  0  0  0  0
  -48.2806   56.4496   57.5414 C   0  0  0  0  0  0  0  0  0  0  0  0
  -41.8462   59.8094   64.8775 O   0  0  0  0  0  0  0  0  0  0  0  0
  -41.5864   61.0697   64.2201 C   0  0  0  0  0  0  0  0  0  0  0  0
  -40.2584   61.5738   64.7368 C   0  0  0  0  0  0  0  0  0  0  0  0
  -40.4733   62.3805   65.8949 O   0  0  0  0  0  0  0  0  0  0  0  0
  -40.8574   61.8371   66.6006 H   0  0  0  0  0  0  0  0  0  0  0  0
  -39.2586   60.4979   65.0854 C   0  0  0  0  0  0  0  0  0  0  0  0
  -38.3985   60.9923   66.1315 O   0  0  0  0  0  0  0  0  0  0  0  0
  -36.8919   61.3753   65.7956 P   0  0  0  0  0  0  0  0  0  0  0  0
  -36.2326   61.7021   67.0761 O   0  0  0  0  0  0  0  0  0  0  0  0
  -36.3483   60.2830   64.9648 O   0  0  0  0  0  0  0  0  0  0  0  0
  -36.3276   59.4627   65.4823 H   0  0  0  0  0  0  0  0  0  0  0  0
  -36.9016   62.6851   64.9003 O   0  0  0  0  0  0  0  0  0  0  0  0
  -36.1968   62.6952   63.6366 C   0  0  0  0  0  0  0  0  0  0  0  0
  -35.4423   64.0046   63.5939 C   0  0  0  0  0  0  0  0  0  0  0  0
  -33.9688   63.9398   63.9438 N   0  0  0  0  0  0  0  0  0  0  0  0
  -33.1392   64.6366   62.9138 C   0  0  0  0  0  0  0  0  0  0  0  0
  -33.5352   62.5109   64.0197 C   0  0  0  0  0  0  0  0  0  0  0  0
  -33.7387   64.5968   65.2684 C   0  0  0  0  0  0  0  0  0  0  0  0
 34 33  1  0  0  0
 34 35  1  0  0  0
 34 36  1  0  0  0
 34 37  1  0  0  0
 22 23  1  0  0  0
 22 25  1  0  0  0
 22 21  1  0  0  0
 23 24  1  0  0  0
 27 26  1  0  0  0
 27 28  2  0  0  0
 27 31  1  0  0  0
 27 29  1  0  0  0
 25 26  1  0  0  0
 32 33  1  0  0  0
 32 31  1  0  0  0
 29 30  1  0  0  0
 20 21  1  0  0  0
 20  2  1  0  0  0
  1  2  2  0  0  0
  2  3  1  0  0  0
  3  4  1  0  0  0
  4  5  1  0  0  0
  5  6  1  0  0  0
  6  7  1  0  0  0
  7  8  1  0  0  0
  8  9  1  0  0  0
  9 10  1  0  0  0
 10 11  2  0  0  0
 11 12  1  0  0  0
 12 13  1  0  0  0
 13 14  1  0  0  0
 14 15  1  0  0  0
 15 16  1  0  0  0
 16 17  1  0  0  0
 17 18  1  0  0  0
 18 19  1  0  0  0
M  CHG 1  28  -1
M  END
> <minimizedAffinity>
-8.13668

> <CNNscore>
0.7034662962

> <CNNaffinity>
6.4125456810

> <CNN_VS>
4.5110096931

> <CNNaffinity_variance>
0.3250612915

$$$$
/media/chris/experiments/cd1a-new-docking/inputs/ligands/4x6c_ligand.pdb


 37 36  0  0  0  0  0  0  0  0999 V2000
  -43.7574   56.0631   64.8229 O   0  0  0  0  0  0  0  0  0  0  0  0
  -43.9706   57.0666   65.4317 C   0  0  0  0  0  0  0  0  0  0  0  0
  -45.1873   57.3094   66.2634 C   0  0  0  0  0  0  0  0  0  0  0  0
  -46.4724   56.9178   65.5587 C   0  0  0  0  0  0  0  0  0  0  0  0
  -47.6297   57.8347   65.8912 C   0  0  0  0  0  0  0  0  0  0  0  0
  -47.5019   59.2322   65.3323 C   0  0  0  0  0  0  0  0  0  0  0  0
  -48.6543   60.1380   65.6842 C   0  0  0  0  0  0  0  0  0  0  0  0
  -49.9896   59.5084   65.3910 C   0  0  0  0  0  0  0  0  0  0  0  0
  -50.8309   60.2256   64.3770 C   0  0  0  0  0  0  0  0  0  0  0  0
  -50.0797   60.6362   63.1820 C   0  0  0  0  0  0  0  0  0  0  0  0
  -49.5830   59.8700   62.2360 C   0  0  0  0  0  0  0  0  0  0  0  0
  -49.6708   58.3928   62.1167 C   0  0  0  0  0  0  0  0  0  0  0  0
  -50.8805   57.8684   61.3704 C   0  0  0  0  0  0  0  0  0  0  0  0
  -50.5200   56.8603   60.3142 C   0  0  0  0  0  0  0  0  0  0  0  0
  -49.0688   56.4531   60.3019 C   0  0  0  0  0  0  0  0  0  0  0  0
  -48.3328   56.9596   59.0810 C   0  0  0  0  0  0  0  0  0  0  0  0
  -47.1413   56.1386   58.6740 C   0  0  0  0  0  0  0  0  0  0  0  0
  -47.3675   55.3557   57.4432 C   0  0  0  0  0  0  0  0  0  0  0  0
  -46.9251   56.0406   56.2302 C   0  0  0  0  0  0  0  0  0  0  0  0
  -43.1482   58.1155   65.4441 O   0  0  0  0  0  0  0  0  0  0  0  0
  -43.6850   59.3795   65.8938 C   0  0  0  0  0  0  0  0  0  0  0  0
  -42.5084   60.2823   66.1855 C   0  0  0  0  0  0  0  0  0  0  0  0
  -41.7630   59.7534   67.2823 O   0  0  0  0  0  0  0  0  0  0  0  0
  -41.3959   58.8897   67.0372 H   0  0  0  0  0  0  0  0  0  0  0  0
  -41.5640   60.4951   65.0273 C   0  0  0  0  0  0  0  0  0  0  0  0
  -40.2314   60.1447   65.4514 O   0  0  0  0  0  0  0  0  0  0  0  0
  -38.9935   61.0064   64.9470 P   0  0  0  0  0  0  0  0  0  0  0  0
  -39.1547   61.1839   63.4897 O   0  0  0  0  0  0  0  0  0  0  0  0
  -38.9217   62.1994   65.8133 O   0  0  0  0  0  0  0  0  0  0  0  0
  -39.7179   62.7390   65.6870 H   0  0  0  0  0  0  0  0  0  0  0  0
  -37.6709   60.1661   65.1956 O   0  0  0  0  0  0  0  0  0  0  0  0
  -36.9639   59.5921   64.0711 C   0  0  0  0  0  0  0  0  0  0  0  0
  -35.8878   58.7115   64.6646 C   0  0  0  0  0  0  0  0  0  0  0  0
  -34.4567   59.0960   64.3453 N   0  0  0  0  0  0  0  0  0  0  0  0
  -34.2959   60.5814   64.2967 C   0  0  0  0  0  0  0  0  0  0  0  0
  -34.0714   58.5300   63.0162 C   0  0  0  0  0  0  0  0  0  0  0  0
  -33.5440   58.5499   65.3980 C   0  0  0  0  0  0  0  0  0  0  0  0
 34 33  1  0  0  0
 34 35  1  0  0  0
 34 36  1  0  0  0
 34 37  1  0  0  0
 22 23  1  0  0  0
 22 25  1  0  0  0
 22 21  1  0  0  0
 23 24  1  0  0  0
 27 26  1  0  0  0
 27 28  2  0  0  0
 27 31  1  0  0  0
 27 29  1  0  0  0
 25 26  1  0  0  0
 32 33  1  0  0  0
 32 31  1  0  0  0
 29 30  1  0  0  0
 20 21  1  0  0  0
 20  2  1  0  0  0
  1  2  2  0  0  0
  2  3  1  0  0  0
  3  4  1  0  0  0
  4  5  1  0  0  0
  5  6  1  0  0  0
  6  7  1  0  0  0
  7  8  1  0  0  0
  8  9  1  0  0  0
  9 10  1  0  0  0
 10 11  2  0  0  0
 11 12  1  0  0  0
 12 13  1  0  0  0
 13 14  1  0  0  0
 14 15  1  0  0  0
 15 16  1  0  0  0
 16 17  1  0  0  0
 17 18  1  0  0  0
 18 19  1  0  0  0
M  CHG 1  28  -1
M  END
> <minimizedAffinity>
-7.60129

> <CNNscore>
0.7026690245

> <CNNaffinity>
6.6701951027

> <CNN_VS>
4.6869397163

> <CNNaffinity_variance>
0.3642105162

$$$$
/media/chris/experiments/cd1a-new-docking/inputs/ligands/4x6c_ligand.pdb


 37 36  0  0  0  0  0  0  0  0999 V2000
  -42.3847   60.4149   66.6978 O   0  0  0  0  0  0  0  0  0  0  0  0
  -42.4040   59.5469   65.8797 C   0  0  0  0  0  0  0  0  0  0  0  0
  -43.5527   58.6181   65.6584 C   0  0  0  0  0  0  0  0  0  0  0  0
  -44.8269   59.3387   65.2604 C   0  0  0  0  0  0  0  0  0  0  0  0
  -46.0640   58.4828   65.4256 C   0  0  0  0  0  0  0  0  0  0  0  0
  -47.3158   59.0669   64.8142 C   0  0  0  0  0  0  0  0  0  0  0  0
  -47.4316   60.5616   64.9714 C   0  0  0  0  0  0  0  0  0  0  0  0
  -48.5589   61.1387   64.1581 C   0  0  0  0  0  0  0  0  0  0  0  0
  -48.9559   60.3416   62.9509 C   0  0  0  0  0  0  0  0  0  0  0  0
  -50.4101   60.1757   62.8145 C   0  0  0  0  0  0  0  0  0  0  0  0
  -51.0683   59.1127   62.4076 C   0  0  0  0  0  0  0  0  0  0  0  0
  -50.5155   57.7959   62.0016 C   0  0  0  0  0  0  0  0  0  0  0  0
  -50.9424   57.3018   60.6345 C   0  0  0  0  0  0  0  0  0  0  0  0
  -49.9067   57.5578   59.5744 C   0  0  0  0  0  0  0  0  0  0  0  0
  -48.5291   57.0417   59.9026 C   0  0  0  0  0  0  0  0  0  0  0  0
  -48.2600   55.6794   59.3022 C   0  0  0  0  0  0  0  0  0  0  0  0
  -47.0814   55.6192   58.3712 C   0  0  0  0  0  0  0  0  0  0  0  0
  -47.4545   55.2921   56.9810 C   0  0  0  0  0  0  0  0  0  0  0  0
  -48.1303   56.3875   56.2884 C   0  0  0  0  0  0  0  0  0  0  0  0
  -41.3917   59.2838   65.0534 O   0  0  0  0  0  0  0  0  0  0  0  0
  -40.7104   60.4078   64.4531 C   0  0  0  0  0  0  0  0  0  0  0  0
  -39.4349   60.6224   65.2353 C   0  0  0  0  0  0  0  0  0  0  0  0
  -38.7279   59.3867   65.3413 O   0  0  0  0  0  0  0  0  0  0  0  0
  -38.4640   59.0883   64.4569 H   0  0  0  0  0  0  0  0  0  0  0  0
  -38.4994   61.6579   64.6599 C   0  0  0  0  0  0  0  0  0  0  0  0
  -37.6825   62.1813   65.7264 O   0  0  0  0  0  0  0  0  0  0  0  0
  -36.0982   62.1525   65.5902 P   0  0  0  0  0  0  0  0  0  0  0  0
  -35.6878   63.4573   65.0332 O   0  0  0  0  0  0  0  0  0  0  0  0
  -35.5642   61.7292   66.8996 O   0  0  0  0  0  0  0  0  0  0  0  0
  -35.7828   62.3966   67.5689 H   0  0  0  0  0  0  0  0  0  0  0  0
  -35.7118   61.0274   64.5403 O   0  0  0  0  0  0  0  0  0  0  0  0
  -34.9732   59.8622   64.9770 C   0  0  0  0  0  0  0  0  0  0  0  0
  -34.5800   59.1251   63.7170 C   0  0  0  0  0  0  0  0  0  0  0  0
  -33.0944   59.0376   63.4287 N   0  0  0  0  0  0  0  0  0  0  0  0
  -32.8404   58.4152   62.0935 C   0  0  0  0  0  0  0  0  0  0  0  0
  -32.4295   58.2056   64.4780 C   0  0  0  0  0  0  0  0  0  0  0  0
  -32.5003   60.4110   63.4374 C   0  0  0  0  0  0  0  0  0  0  0  0
 34 33  1  0  0  0
 34 35  1  0  0  0
 34 36  1  0  0  0
 34 37  1  0  0  0
 22 23  1  0  0  0
 22 25  1  0  0  0
 22 21  1  0  0  0
 23 24  1  0  0  0
 27 26  1  0  0  0
 27 28  2  0  0  0
 27 31  1  0  0  0
 27 29  1  0  0  0
 25 26  1  0  0  0
 32 33  1  0  0  0
 32 31  1  0  0  0
 29 30  1  0  0  0
 20 21  1  0  0  0
 20  2  1  0  0  0
  1  2  2  0  0  0
  2  3  1  0  0  0
  3  4  1  0  0  0
  4  5  1  0  0  0
  5  6  1  0  0  0
  6  7  1  0  0  0
  7  8  1  0  0  0
  8  9  1  0  0  0
  9 10  1  0  0  0
 10 11  2  0  0  0
 11 12  1  0  0  0
 12 13  1  0  0  0
 13 14  1  0  0  0
 14 15  1  0  0  0
 15 16  1  0  0  0
 16 17  1  0  0  0
 17 18  1  0  0  0
 18 19  1  0  0  0
M  CHG 1  28  -1
M  END
> <minimizedAffinity>
-7.89642

> <CNNscore>
0.6883771420

> <CNNaffinity>
6.3019065857

> <CNN_VS>
4.3380885124

> <CNNaffinity_variance>
0.4328459799

$$$$
/media/chris/experiments/cd1a-new-docking/inputs/ligands/4x6c_ligand.pdb


 37 36  0  0  0  0  0  0  0  0999 V2000
  -42.7165   57.1178   65.8137 O   0  0  0  0  0  0  0  0  0  0  0  0
  -42.7737   58.3055   65.7181 C   0  0  0  0  0  0  0  0  0  0  0  0
  -43.9347   59.0537   65.1495 C   0  0  0  0  0  0  0  0  0  0  0  0
  -45.2489   58.7053   65.8226 C   0  0  0  0  0  0  0  0  0  0  0  0
  -46.2948   58.2054   64.8497 C   0  0  0  0  0  0  0  0  0  0  0  0
  -47.7182   58.3381   65.3376 C   0  0  0  0  0  0  0  0  0  0  0  0
  -48.1174   59.7514   65.6779 C   0  0  0  0  0  0  0  0  0  0  0  0
  -48.1884   60.6363   64.4626 C   0  0  0  0  0  0  0  0  0  0  0  0
  -49.5156   60.6658   63.7640 C   0  0  0  0  0  0  0  0  0  0  0  0
  -49.4094   60.5244   62.3047 C   0  0  0  0  0  0  0  0  0  0  0  0
  -49.8726   59.5520   61.5505 C   0  0  0  0  0  0  0  0  0  0  0  0
  -50.6428   58.3554   61.9737 C   0  0  0  0  0  0  0  0  0  0  0  0
  -50.6606   57.2070   60.9857 C   0  0  0  0  0  0  0  0  0  0  0  0
  -50.3893   57.6501   59.5743 C   0  0  0  0  0  0  0  0  0  0  0  0
  -48.9952   57.3594   59.0803 C   0  0  0  0  0  0  0  0  0  0  0  0
  -48.5304   55.9649   59.4379 C   0  0  0  0  0  0  0  0  0  0  0  0
  -47.2015   55.5715   58.8557 C   0  0  0  0  0  0  0  0  0  0  0  0
  -46.8395   56.3497   57.6547 C   0  0  0  0  0  0  0  0  0  0  0  0
  -47.0657   55.6267   56.4048 C   0  0  0  0  0  0  0  0  0  0  0  0
  -41.7978   59.1283   66.1018 O   0  0  0  0  0  0  0  0  0  0  0  0
  -42.0149   60.5467   65.9316 C   0  0  0  0  0  0  0  0  0  0  0  0
  -40.8332   61.0866   65.1592 C   0  0  0  0  0  0  0  0  0  0  0  0
  -39.8371   61.5462   66.0728 O   0  0  0  0  0  0  0  0  0  0  0  0
  -39.5083   60.7983   66.5958 H   0  0  0  0  0  0  0  0  0  0  0  0
  -40.1903   60.1067   64.2078 C   0  0  0  0  0  0  0  0  0  0  0  0
  -39.8544   60.8021   62.9904 O   0  0  0  0  0  0  0  0  0  0  0  0
  -38.7632   60.1884   62.0096 P   0  0  0  0  0  0  0  0  0  0  0  0
  -38.5407   58.7903   62.4302 O   0  0  0  0  0  0  0  0  0  0  0  0
  -39.2233   60.4612   60.6338 O   0  0  0  0  0  0  0  0  0  0  0  0
  -40.0544   59.9880   60.4711 H   0  0  0  0  0  0  0  0  0  0  0  0
  -37.4069   60.9850   62.2170 O   0  0  0  0  0  0  0  0  0  0  0  0
  -37.2461   61.8381   63.3747 C   0  0  0  0  0  0  0  0  0  0  0  0
  -35.7979   61.7060   63.7883 C   0  0  0  0  0  0  0  0  0  0  0  0
  -35.4549   60.5075   64.6508 N   0  0  0  0  0  0  0  0  0  0  0  0
  -34.9378   59.3767   63.8208 C   0  0  0  0  0  0  0  0  0  0  0  0
  -36.6782   60.0470   65.3766 C   0  0  0  0  0  0  0  0  0  0  0  0
  -34.4048   60.8901   65.6459 C   0  0  0  0  0  0  0  0  0  0  0  0
 34 33  1  0  0  0
 34 35  1  0  0  0
 34 36  1  0  0  0
 34 37  1  0  0  0
 22 23  1  0  0  0
 22 25  1  0  0  0
 22 21  1  0  0  0
 23 24  1  0  0  0
 27 26  1  0  0  0
 27 28  2  0  0  0
 27 31  1  0  0  0
 27 29  1  0  0  0
 25 26  1  0  0  0
 32 33  1  0  0  0
 32 31  1  0  0  0
 29 30  1  0  0  0
 20 21  1  0  0  0
 20  2  1  0  0  0
  1  2  2  0  0  0
  2  3  1  0  0  0
  3  4  1  0  0  0
  4  5  1  0  0  0
  5  6  1  0  0  0
  6  7  1  0  0  0
  7  8  1  0  0  0
  8  9  1  0  0  0
  9 10  1  0  0  0
 10 11  2  0  0  0
 11 12  1  0  0  0
 12 13  1  0  0  0
 13 14  1  0  0  0
 14 15  1  0  0  0
 15 16  1  0  0  0
 16 17  1  0  0  0
 17 18  1  0  0  0
 18 19  1  0  0  0
M  CHG 1  28  -1
M  END
> <minimizedAffinity>
-7.95397

> <CNNscore>
0.6633659601

> <CNNaffinity>
6.6548795700

> <CNN_VS>
4.4146203995

> <CNNaffinity_variance>
0.3073728085

$$$$
/media/chris/experiments/cd1a-new-docking/inputs/ligands/4x6c_ligand.pdb


 37 36  0  0  0  0  0  0  0  0999 V2000
  -43.5094   57.2089   65.4923 O   0  0  0  0  0  0  0  0  0  0  0  0
  -43.8143   58.3537   65.3528 C   0  0  0  0  0  0  0  0  0  0  0  0
  -45.0271   58.9856   65.9536 C   0  0  0  0  0  0  0  0  0  0  0  0
  -46.2369   58.9285   65.0400 C   0  0  0  0  0  0  0  0  0  0  0  0
  -46.9757   57.6102   65.1222 C   0  0  0  0  0  0  0  0  0  0  0  0
  -48.4799   57.7300   65.0535 C   0  0  0  0  0  0  0  0  0  0  0  0
  -49.0127   59.0382   65.5801 C   0  0  0  0  0  0  0  0  0  0  0  0
  -50.4087   59.3258   65.0966 C   0  0  0  0  0  0  0  0  0  0  0  0
  -50.5558   60.5534   64.2470 C   0  0  0  0  0  0  0  0  0  0  0  0
  -49.5588   60.6397   63.1702 C   0  0  0  0  0  0  0  0  0  0  0  0
  -49.5587   60.0105   62.0157 C   0  0  0  0  0  0  0  0  0  0  0  0
  -50.5767   59.0664   61.4898 C   0  0  0  0  0  0  0  0  0  0  0  0
  -50.2744   57.5966   61.6988 C   0  0  0  0  0  0  0  0  0  0  0  0
  -48.9717   57.1768   61.0755 C   0  0  0  0  0  0  0  0  0  0  0  0
  -48.9997   57.0662   59.5725 C   0  0  0  0  0  0  0  0  0  0  0  0
  -48.1415   55.9321   59.0566 C   0  0  0  0  0  0  0  0  0  0  0  0
  -46.7792   56.3398   58.5695 C   0  0  0  0  0  0  0  0  0  0  0  0
  -46.8135   57.0589   57.2808 C   0  0  0  0  0  0  0  0  0  0  0  0
  -47.5553   56.3498   56.2401 C   0  0  0  0  0  0  0  0  0  0  0  0
  -43.1116   59.2256   64.6300 O   0  0  0  0  0  0  0  0  0  0  0  0
  -42.7914   60.4952   65.2414 C   0  0  0  0  0  0  0  0  0  0  0  0
  -41.3986   60.3722   65.8154 C   0  0  0  0  0  0  0  0  0  0  0  0
  -41.4407   59.5777   67.0008 O   0  0  0  0  0  0  0  0  0  0  0  0
  -41.7291   58.6789   66.7775 H   0  0  0  0  0  0  0  0  0  0  0  0
  -40.3728   59.7781   64.8808 C   0  0  0  0  0  0  0  0  0  0  0  0
  -39.0820   59.8346   65.5206 O   0  0  0  0  0  0  0  0  0  0  0  0
  -38.0679   61.0004   65.1440 P   0  0  0  0  0  0  0  0  0  0  0  0
  -37.8770   60.9521   63.6804 O   0  0  0  0  0  0  0  0  0  0  0  0
  -38.5888   62.2359   65.7612 O   0  0  0  0  0  0  0  0  0  0  0  0
  -39.4447   62.4601   65.3633 H   0  0  0  0  0  0  0  0  0  0  0  0
  -36.6732   60.6849   65.8314 O   0  0  0  0  0  0  0  0  0  0  0  0
  -35.8717   61.7685   66.3579 C   0  0  0  0  0  0  0  0  0  0  0  0
  -34.5930   61.7675   65.5513 C   0  0  0  0  0  0  0  0  0  0  0  0
  -34.2047   63.0853   64.9107 N   0  0  0  0  0  0  0  0  0  0  0  0
  -35.3920   63.7585   64.3008 C   0  0  0  0  0  0  0  0  0  0  0  0
  -33.1912   62.8410   63.8391 C   0  0  0  0  0  0  0  0  0  0  0  0
  -33.6194   63.9930   65.9465 C   0  0  0  0  0  0  0  0  0  0  0  0
 34 33  1  0  0  0
 34 35  1  0  0  0
 34 36  1  0  0  0
 34 37  1  0  0  0
 22 23  1  0  0  0
 22 25  1  0  0  0
 22 21  1  0  0  0
 23 24  1  0  0  0
 27 26  1  0  0  0
 27 28  2  0  0  0
 27 31  1  0  0  0
 27 29  1  0  0  0
 25 26  1  0  0  0
 32 33  1  0  0  0
 32 31  1  0  0  0
 29 30  1  0  0  0
 20 21  1  0  0  0
 20  2  1  0  0  0
  1  2  2  0  0  0
  2  3  1  0  0  0
  3  4  1  0  0  0
  4  5  1  0  0  0
  5  6  1  0  0  0
  6  7  1  0  0  0
  7  8  1  0  0  0
  8  9  1  0  0  0
  9 10  1  0  0  0
 10 11  2  0  0  0
 11 12  1  0  0  0
 12 13  1  0  0  0
 13 14  1  0  0  0
 14 15  1  0  0  0
 15 16  1  0  0  0
 16 17  1  0  0  0
 17 18  1  0  0  0
 18 19  1  0  0  0
M  CHG 1  28  -1
M  END
> <minimizedAffinity>
-7.59424

> <CNNscore>
0.6097835302

> <CNNaffinity>
6.3359041214

> <CNN_VS>
3.8635299206

> <CNNaffinity_variance>
0.2460160553

$$$$
/media/chris/experiments/cd1a-new-docking/inputs/ligands/4x6c_ligand.pdb


 37 36  0  0  0  0  0  0  0  0999 V2000
  -41.9254   58.9309   66.6827 O   0  0  0  0  0  0  0  0  0  0  0  0
  -42.0924   59.2115   65.5353 C   0  0  0  0  0  0  0  0  0  0  0  0
  -43.4295   59.3593   64.8863 C   0  0  0  0  0  0  0  0  0  0  0  0
  -44.2167   58.0629   64.8532 C   0  0  0  0  0  0  0  0  0  0  0  0
  -45.7136   58.2811   64.8985 C   0  0  0  0  0  0  0  0  0  0  0  0
  -46.1350   59.6133   65.4726 C   0  0  0  0  0  0  0  0  0  0  0  0
  -47.4074   60.1595   64.8768 C   0  0  0  0  0  0  0  0  0  0  0  0
  -48.5864   60.0039   65.7995 C   0  0  0  0  0  0  0  0  0  0  0  0
  -49.7057   59.1532   65.2763 C   0  0  0  0  0  0  0  0  0  0  0  0
  -50.8033   59.9328   64.6861 C   0  0  0  0  0  0  0  0  0  0  0  0
  -51.0911   60.0886   63.4126 C   0  0  0  0  0  0  0  0  0  0  0  0
  -50.3960   59.4995   62.2403 C   0  0  0  0  0  0  0  0  0  0  0  0
  -50.4248   57.9871   62.1558 C   0  0  0  0  0  0  0  0  0  0  0  0
  -50.6149   57.4870   60.7503 C   0  0  0  0  0  0  0  0  0  0  0  0
  -49.3682   57.5010   59.9031 C   0  0  0  0  0  0  0  0  0  0  0  0
  -48.8484   56.1107   59.6103 C   0  0  0  0  0  0  0  0  0  0  0  0
  -47.5251   56.0663   58.8984 C   0  0  0  0  0  0  0  0  0  0  0  0
  -47.4302   57.0327   57.7866 C   0  0  0  0  0  0  0  0  0  0  0  0
  -47.0891   56.4137   56.5073 C   0  0  0  0  0  0  0  0  0  0  0  0
  -41.0996   59.4242   64.6717 O   0  0  0  0  0  0  0  0  0  0  0  0
  -41.1094   60.6681   63.9363 C   0  0  0  0  0  0  0  0  0  0  0  0
  -39.6692   61.0945   63.7672 C   0  0  0  0  0  0  0  0  0  0  0  0
  -39.2430   61.8037   64.9306 O   0  0  0  0  0  0  0  0  0  0  0  0
  -39.2684   61.2109   65.6980 H   0  0  0  0  0  0  0  0  0  0  0  0
  -38.6956   59.9694   63.5126 C   0  0  0  0  0  0  0  0  0  0  0  0
  -37.3558   60.4757   63.6779 O   0  0  0  0  0  0  0  0  0  0  0  0
  -36.2935   59.6327   64.5086 P   0  0  0  0  0  0  0  0  0  0  0  0
  -37.0498   58.6355   65.2926 O   0  0  0  0  0  0  0  0  0  0  0  0
  -35.2716   59.1690   63.5496 O   0  0  0  0  0  0  0  0  0  0  0  0
  -35.6797   58.5654   62.9090 H   0  0  0  0  0  0  0  0  0  0  0  0
  -35.5710   60.6118   65.5267 O   0  0  0  0  0  0  0  0  0  0  0  0
  -35.6590   62.0428   65.3306 C   0  0  0  0  0  0  0  0  0  0  0  0
  -34.2425   62.5620   65.4284 C   0  0  0  0  0  0  0  0  0  0  0  0
  -34.0691   63.9122   66.0953 N   0  0  0  0  0  0  0  0  0  0  0  0
  -34.4875   65.0209   65.1841 C   0  0  0  0  0  0  0  0  0  0  0  0
  -32.6325   64.1093   66.4594 C   0  0  0  0  0  0  0  0  0  0  0  0
  -34.9053   63.9700   67.3350 C   0  0  0  0  0  0  0  0  0  0  0  0
 34 33  1  0  0  0
 34 35  1  0  0  0
 34 36  1  0  0  0
 34 37  1  0  0  0
 22 23  1  0  0  0
 22 25  1  0  0  0
 22 21  1  0  0  0
 23 24  1  0  0  0
 27 26  1  0  0  0
 27 28  2  0  0  0
 27 31  1  0  0  0
 27 29  1  0  0  0
 25 26  1  0  0  0
 32 33  1  0  0  0
 32 31  1  0  0  0
 29 30  1  0  0  0
 20 21  1  0  0  0
 20  2  1  0  0  0
  1  2  2  0  0  0
  2  3  1  0  0  0
  3  4  1  0  0  0
  4  5  1  0  0  0
  5  6  1  0  0  0
  6  7  1  0  0  0
  7  8  1  0  0  0
  8  9  1  0  0  0
  9 10  1  0  0  0
 10 11  2  0  0  0
 11 12  1  0  0  0
 12 13  1  0  0  0
 13 14  1  0  0  0
 14 15  1  0  0  0
 15 16  1  0  0  0
 16 17  1  0  0  0
 17 18  1  0  0  0
 18 19  1  0  0  0
M  CHG 1  28  -1
M  END
> <minimizedAffinity>
-7.90029

> <CNNscore>
0.6024771929

> <CNNaffinity>
6.3920598030

> <CNN_VS>
3.8510701656

> <CNNaffinity_variance>
0.4555912018

$$$$
/media/chris/experiments/cd1a-new-docking/inputs/ligands/4x6c_ligand.pdb


 37 36  0  0  0  0  0  0  0  0999 V2000
  -41.7343   60.0820   66.5377 O   0  0  0  0  0  0  0  0  0  0  0  0
  -42.3383   59.8444   65.5368 C   0  0  0  0  0  0  0  0  0  0  0  0
  -43.4961   58.9047   65.4500 C   0  0  0  0  0  0  0  0  0  0  0  0
  -44.8250   59.5761   65.7410 C   0  0  0  0  0  0  0  0  0  0  0  0
  -46.0073   58.6516   65.5463 C   0  0  0  0  0  0  0  0  0  0  0  0
  -47.1411   59.2455   64.7440 C   0  0  0  0  0  0  0  0  0  0  0  0
  -47.5115   60.6474   65.1562 C   0  0  0  0  0  0  0  0  0  0  0  0
  -48.5626   61.2495   64.2629 C   0  0  0  0  0  0  0  0  0  0  0  0
  -48.8528   60.4861   63.0046 C   0  0  0  0  0  0  0  0  0  0  0  0
  -50.2895   60.3152   62.7448 C   0  0  0  0  0  0  0  0  0  0  0  0
  -50.9210   59.2210   62.3806 C   0  0  0  0  0  0  0  0  0  0  0  0
  -50.3511   57.8682   62.1588 C   0  0  0  0  0  0  0  0  0  0  0  0
  -50.8184   57.1601   60.9035 C   0  0  0  0  0  0  0  0  0  0  0  0
  -50.3855   57.8611   59.6454 C   0  0  0  0  0  0  0  0  0  0  0  0
  -49.0639   57.3967   59.0889 C   0  0  0  0  0  0  0  0  0  0  0  0
  -48.7802   55.9436   59.3999 C   0  0  0  0  0  0  0  0  0  0  0  0
  -47.3934   55.4804   59.0510 C   0  0  0  0  0  0  0  0  0  0  0  0
  -46.8429   56.1437   57.8527 C   0  0  0  0  0  0  0  0  0  0  0  0
  -47.1627   55.4497   56.6068 C   0  0  0  0  0  0  0  0  0  0  0  0
  -42.0525   60.3844   64.3521 O   0  0  0  0  0  0  0  0  0  0  0  0
  -40.8875   61.2353   64.2698 C   0  0  0  0  0  0  0  0  0  0  0  0
  -39.9889   60.6547   63.2021 C   0  0  0  0  0  0  0  0  0  0  0  0
  -40.3129   61.2363   61.9392 O   0  0  0  0  0  0  0  0  0  0  0  0
  -40.1320   62.1889   61.9661 H   0  0  0  0  0  0  0  0  0  0  0  0
  -38.5099   60.8360   63.4440 C   0  0  0  0  0  0  0  0  0  0  0  0
  -37.8308   59.6218   63.0656 O   0  0  0  0  0  0  0  0  0  0  0  0
  -37.5756   58.4914   64.1548 P   0  0  0  0  0  0  0  0  0  0  0  0
  -37.3602   59.1751   65.4460 O   0  0  0  0  0  0  0  0  0  0  0  0
  -38.6806   57.5207   64.0304 O   0  0  0  0  0  0  0  0  0  0  0  0
  -39.5185   57.9539   64.2570 H   0  0  0  0  0  0  0  0  0  0  0  0
  -36.2371   57.7295   63.7737 O   0  0  0  0  0  0  0  0  0  0  0  0
  -35.3945   58.2452   62.7164 C   0  0  0  0  0  0  0  0  0  0  0  0
  -33.9842   57.8338   63.0731 C   0  0  0  0  0  0  0  0  0  0  0  0
  -33.2327   58.7609   64.0079 N   0  0  0  0  0  0  0  0  0  0  0  0
  -33.8168   60.1368   63.9866 C   0  0  0  0  0  0  0  0  0  0  0  0
  -31.8007   58.8432   63.5861 C   0  0  0  0  0  0  0  0  0  0  0  0
  -33.3063   58.2312   65.4055 C   0  0  0  0  0  0  0  0  0  0  0  0
 34 33  1  0  0  0
 34 35  1  0  0  0
 34 36  1  0  0  0
 34 37  1  0  0  0
 22 23  1  0  0  0
 22 25  1  0  0  0
 22 21  1  0  0  0
 23 24  1  0  0  0
 27 26  1  0  0  0
 27 28  2  0  0  0
 27 31  1  0  0  0
 27 29  1  0  0  0
 25 26  1  0  0  0
 32 33  1  0  0  0
 32 31  1  0  0  0
 29 30  1  0  0  0
 20 21  1  0  0  0
 20  2  1  0  0  0
  1  2  2  0  0  0
  2  3  1  0  0  0
  3  4  1  0  0  0
  4  5  1  0  0  0
  5  6  1  0  0  0
  6  7  1  0  0  0
  7  8  1  0  0  0
  8  9  1  0  0  0
  9 10  1  0  0  0
 10 11  2  0  0  0
 11 12  1  0  0  0
 12 13  1  0  0  0
 13 14  1  0  0  0
 14 15  1  0  0  0
 15 16  1  0  0  0
 16 17  1  0  0  0
 17 18  1  0  0  0
 18 19  1  0  0  0
M  CHG 1  28  -1
M  END
> <minimizedAffinity>
-7.59034

> <CNNscore>
0.5786787868

> <CNNaffinity>
6.2621374130

> <CNN_VS>
3.6237661839

> <CNNaffinity_variance>
0.5378884077

$$$$
