/media/chris/experiments/cd1a-new-docking/inputs/ligands/4x6c_ligand.pdb


 37 36  0  0  0  0  0  0  0  0999 V2000
  -42.6731   57.2837   65.9380 O   0  0  0  0  0  0  0  0  0  0  0  0
  -42.6921   58.4162   65.5637 C   0  0  0  0  0  0  0  0  0  0  0  0
  -43.9329   59.1730   65.2193 C   0  0  0  0  0  0  0  0  0  0  0  0
  -45.1864   58.5497   65.8039 C   0  0  0  0  0  0  0  0  0  0  0  0
  -46.3718   59.4906   65.7944 C   0  0  0  0  0  0  0  0  0  0  0  0
  -47.4442   59.1366   64.7912 C   0  0  0  0  0  0  0  0  0  0  0  0
  -48.3528   58.0197   65.2377 C   0  0  0  0  0  0  0  0  0  0  0  0
  -49.8066   58.4054   65.1824 C   0  0  0  0  0  0  0  0  0  0  0  0
  -50.0827   59.8159   64.7527 C   0  0  0  0  0  0  0  0  0  0  0  0
  -51.1193   59.9167   63.7152 C   0  0  0  0  0  0  0  0  0  0  0  0
  -50.9740   59.8053   62.4133 C   0  0  0  0  0  0  0  0  0  0  0  0
  -49.7294   59.5260   61.6535 C   0  0  0  0  0  0  0  0  0  0  0  0
  -49.3344   58.0663   61.5607 C   0  0  0  0  0  0  0  0  0  0  0  0
  -49.7659   57.4283   60.2689 C   0  0  0  0  0  0  0  0  0  0  0  0
  -49.2936   56.0096   60.0789 C   0  0  0  0  0  0  0  0  0  0  0  0
  -48.3344   55.8665   58.9179 C   0  0  0  0  0  0  0  0  0  0  0  0
  -48.0548   57.1383   58.1669 C   0  0  0  0  0  0  0  0  0  0  0  0
  -47.0083   56.9872   57.1367 C   0  0  0  0  0  0  0  0  0  0  0  0
  -47.0303   55.6846   56.4740 C   0  0  0  0  0  0  0  0  0  0  0  0
  -41.5988   59.1596   65.3941 O   0  0  0  0  0  0  0  0  0  0  0  0
  -41.7800   60.5204   64.9433 C   0  0  0  0  0  0  0  0  0  0  0  0
  -40.4510   61.2219   65.1053 C   0  0  0  0  0  0  0  0  0  0  0  0
  -40.6230   62.3874   65.9114 O   0  0  0  0  0  0  0  0  0  0  0  0
  -40.9090   62.1261   66.8008 H   0  0  0  0  0  0  0  0  0  0  0  0
  -39.3546   60.3808   65.7130 C   0  0  0  0  0  0  0  0  0  0  0  0
  -38.2478   60.3334   64.7901 O   0  0  0  0  0  0  0  0  0  0  0  0
  -37.3209   61.6127   64.6072 P   0  0  0  0  0  0  0  0  0  0  0  0
  -37.5473   62.1192   63.2385 O   0  0  0  0  0  0  0  0  0  0  0  0
  -37.5868   62.5008   65.7560 O   0  0  0  0  0  0  0  0  0  0  0  0
  -38.5069   62.8058   65.7228 H   0  0  0  0  0  0  0  0  0  0  0  0
  -35.8079   61.1477   64.7142 O   0  0  0  0  0  0  0  0  0  0  0  0
  -35.4758   59.7471   64.5665 C   0  0  0  0  0  0  0  0  0  0  0  0
  -34.0141   59.6271   64.9335 C   0  0  0  0  0  0  0  0  0  0  0  0
  -33.1130   58.9910   63.8939 N   0  0  0  0  0  0  0  0  0  0  0  0
  -32.1769   58.0083   64.5206 C   0  0  0  0  0  0  0  0  0  0  0  0
  -32.3076   60.0513   63.2139 C   0  0  0  0  0  0  0  0  0  0  0  0
  -33.9471   58.2762   62.8775 C   0  0  0  0  0  0  0  0  0  0  0  0
 34 33  1  0  0  0
 34 35  1  0  0  0
 34 36  1  0  0  0
 34 37  1  0  0  0
 22 23  1  0  0  0
 22 25  1  0  0  0
 22 21  1  0  0  0
 23 24  1  0  0  0
 27 26  1  0  0  0
 27 28  2  0  0  0
 27 31  1  0  0  0
 27 29  1  0  0  0
 25 26  1  0  0  0
 32 33  1  0  0  0
 32 31  1  0  0  0
 29 30  1  0  0  0
 20 21  1  0  0  0
 20  2  1  0  0  0
  1  2  2  0  0  0
  2  3  1  0  0  0
  3  4  1  0  0  0
  4  5  1  0  0  0
  5  6  1  0  0  0
  6  7  1  0  0  0
  7  8  1  0  0  0
  8  9  1  0  0  0
  9 10  1  0  0  0
 10 11  2  0  0  0
 11 12  1  0  0  0
 12 13  1  0  0  0
 13 14  1  0  0  0
 14 15  1  0  0  0
 15 16  1  0  0  0
 16 17  1  0  0  0
 17 18  1  0  0  0
 18 19  1  0  0  0
M  CHG 1  28  -1
M  END
> <minimizedAffinity>
-8.03121

> <CNNscore>
0.8729426861

> <CNNaffinity>
6.7112035751

> <CNN_VS>
5.8584961891

> <CNNaffinity_variance>
0.2765332162

$$$$
/media/chris/experiments/cd1a-new-docking/inputs/ligands/4x6c_ligand.pdb


 37 36  0  0  0  0  0  0  0  0999 V2000
  -42.2496   58.0320   66.2422 O   0  0  0  0  0  0  0  0  0  0  0  0
  -42.9819   58.7905   65.6841 C   0  0  0  0  0  0  0  0  0  0  0  0
  -44.0901   58.3795   64.7708 C   0  0  0  0  0  0  0  0  0  0  0  0
  -44.8550   57.1709   65.2766 C   0  0  0  0  0  0  0  0  0  0  0  0
  -46.0297   57.5426   66.1554 C   0  0  0  0  0  0  0  0  0  0  0  0
  -46.4521   58.9895   66.0572 C   0  0  0  0  0  0  0  0  0  0  0  0
  -47.6836   59.2100   65.2163 C   0  0  0  0  0  0  0  0  0  0  0  0
  -48.4333   57.9323   64.9502 C   0  0  0  0  0  0  0  0  0  0  0  0
  -49.9268   58.0286   65.0529 C   0  0  0  0  0  0  0  0  0  0  0  0
  -50.4126   59.4073   65.2090 C   0  0  0  0  0  0  0  0  0  0  0  0
  -50.9110   60.1987   64.2851 C   0  0  0  0  0  0  0  0  0  0  0  0
  -51.1343   59.8983   62.8483 C   0  0  0  0  0  0  0  0  0  0  0  0
  -49.9660   60.1936   61.9300 C   0  0  0  0  0  0  0  0  0  0  0  0
  -49.7875   59.1495   60.8622 C   0  0  0  0  0  0  0  0  0  0  0  0
  -49.4452   57.7749   61.3769 C   0  0  0  0  0  0  0  0  0  0  0  0
  -49.6886   56.6918   60.3493 C   0  0  0  0  0  0  0  0  0  0  0  0
  -49.4183   57.0959   58.9269 C   0  0  0  0  0  0  0  0  0  0  0  0
  -48.0137   56.8919   58.5213 C   0  0  0  0  0  0  0  0  0  0  0  0
  -47.4608   55.6145   58.9672 C   0  0  0  0  0  0  0  0  0  0  0  0
  -42.9024   60.1163   65.7964 O   0  0  0  0  0  0  0  0  0  0  0  0
  -41.8541   60.6539   66.6330 C   0  0  0  0  0  0  0  0  0  0  0  0
  -40.7535   61.1307   65.7134 C   0  0  0  0  0  0  0  0  0  0  0  0
  -40.4733   62.5050   65.9789 O   0  0  0  0  0  0  0  0  0  0  0  0
  -40.1377   62.5975   66.8844 H   0  0  0  0  0  0  0  0  0  0  0  0
  -39.4619   60.3551   65.8071 C   0  0  0  0  0  0  0  0  0  0  0  0
  -38.3841   61.2850   66.0368 O   0  0  0  0  0  0  0  0  0  0  0  0
  -37.1626   61.3398   65.0198 P   0  0  0  0  0  0  0  0  0  0  0  0
  -37.1748   60.0735   64.2600 O   0  0  0  0  0  0  0  0  0  0  0  0
  -37.2717   62.6180   64.2895 O   0  0  0  0  0  0  0  0  0  0  0  0
  -38.0853   62.6203   63.7614 H   0  0  0  0  0  0  0  0  0  0  0  0
  -35.8190   61.3938   65.8618 O   0  0  0  0  0  0  0  0  0  0  0  0
  -35.4602   62.6077   66.5628 C   0  0  0  0  0  0  0  0  0  0  0  0
  -33.9578   62.7263   66.4428 C   0  0  0  0  0  0  0  0  0  0  0  0
  -33.4435   63.8268   65.5361 N   0  0  0  0  0  0  0  0  0  0  0  0
  -32.3274   64.5814   66.1838 C   0  0  0  0  0  0  0  0  0  0  0  0
  -34.5523   64.7822   65.2307 C   0  0  0  0  0  0  0  0  0  0  0  0
  -32.9401   63.2300   64.2594 C   0  0  0  0  0  0  0  0  0  0  0  0
 34 33  1  0  0  0
 34 35  1  0  0  0
 34 36  1  0  0  0
 34 37  1  0  0  0
 22 23  1  0  0  0
 22 25  1  0  0  0
 22 21  1  0  0  0
 23 24  1  0  0  0
 27 26  1  0  0  0
 27 28  2  0  0  0
 27 31  1  0  0  0
 27 29  1  0  0  0
 25 26  1  0  0  0
 32 33  1  0  0  0
 32 31  1  0  0  0
 29 30  1  0  0  0
 20 21  1  0  0  0
 20  2  1  0  0  0
  1  2  2  0  0  0
  2  3  1  0  0  0
  3  4  1  0  0  0
  4  5  1  0  0  0
  5  6  1  0  0  0
  6  7  1  0  0  0
  7  8  1  0  0  0
  8  9  1  0  0  0
  9 10  1  0  0  0
 10 11  2  0  0  0
 11 12  1  0  0  0
 12 13  1  0  0  0
 13 14  1  0  0  0
 14 15  1  0  0  0
 15 16  1  0  0  0
 16 17  1  0  0  0
 17 18  1  0  0  0
 18 19  1  0  0  0
M  CHG 1  28  -1
M  END
> <minimizedAffinity>
-8.19533

> <CNNscore>
0.8487587571

> <CNNaffinity>
6.5275483131

> <CNN_VS>
5.5403137207

> <CNNaffinity_variance>
0.2561851144

$$$$
/media/chris/experiments/cd1a-new-docking/inputs/ligands/4x6c_ligand.pdb


 37 36  0  0  0  0  0  0  0  0999 V2000
  -40.6800   59.3140   65.1453 O   0  0  0  0  0  0  0  0  0  0  0  0
  -41.3975   60.1101   64.6216 C   0  0  0  0  0  0  0  0  0  0  0  0
  -42.8762   59.9528   64.4806 C   0  0  0  0  0  0  0  0  0  0  0  0
  -43.4335   58.8235   65.3265 C   0  0  0  0  0  0  0  0  0  0  0  0
  -44.5193   58.0397   64.6215 C   0  0  0  0  0  0  0  0  0  0  0  0
  -45.9255   58.4141   65.0268 C   0  0  0  0  0  0  0  0  0  0  0  0
  -46.6908   57.2927   65.6817 C   0  0  0  0  0  0  0  0  0  0  0  0
  -48.1297   57.2465   65.2424 C   0  0  0  0  0  0  0  0  0  0  0  0
  -48.5543   58.3436   64.3116 C   0  0  0  0  0  0  0  0  0  0  0  0
  -49.6537   59.1639   64.8407 C   0  0  0  0  0  0  0  0  0  0  0  0
  -50.6629   59.6868   64.1800 C   0  0  0  0  0  0  0  0  0  0  0  0
  -50.9675   59.5663   62.7319 C   0  0  0  0  0  0  0  0  0  0  0  0
  -49.9194   60.1307   61.7948 C   0  0  0  0  0  0  0  0  0  0  0  0
  -49.8626   59.4024   60.4800 C   0  0  0  0  0  0  0  0  0  0  0  0
  -49.4953   57.9443   60.5835 C   0  0  0  0  0  0  0  0  0  0  0  0
  -48.9177   57.3972   59.2968 C   0  0  0  0  0  0  0  0  0  0  0  0
  -48.0927   56.1503   59.4527 C   0  0  0  0  0  0  0  0  0  0  0  0
  -47.1465   55.9363   58.3400 C   0  0  0  0  0  0  0  0  0  0  0  0
  -47.5652   56.5714   57.0920 C   0  0  0  0  0  0  0  0  0  0  0  0
  -40.9699   61.2512   64.0812 O   0  0  0  0  0  0  0  0  0  0  0  0
  -41.0864   61.3963   62.6483 C   0  0  0  0  0  0  0  0  0  0  0  0
  -39.8784   60.7260   62.0352 C   0  0  0  0  0  0  0  0  0  0  0  0
  -40.0215   60.6936   60.6152 O   0  0  0  0  0  0  0  0  0  0  0  0
  -40.0399   61.6004   60.2712 H   0  0  0  0  0  0  0  0  0  0  0  0
  -38.5539   61.3706   62.3651 C   0  0  0  0  0  0  0  0  0  0  0  0
  -38.0678   60.8127   63.6027 O   0  0  0  0  0  0  0  0  0  0  0  0
  -37.4573   61.7743   64.7126 P   0  0  0  0  0  0  0  0  0  0  0  0
  -36.6410   62.7841   64.0089 O   0  0  0  0  0  0  0  0  0  0  0  0
  -38.5826   62.2206   65.5573 O   0  0  0  0  0  0  0  0  0  0  0  0
  -39.1965   62.7501   65.0248 H   0  0  0  0  0  0  0  0  0  0  0  0
  -36.4907   60.9172   65.6334 O   0  0  0  0  0  0  0  0  0  0  0  0
  -36.3533   59.4956   65.4016 C   0  0  0  0  0  0  0  0  0  0  0  0
  -35.1539   59.3378   64.4948 C   0  0  0  0  0  0  0  0  0  0  0  0
  -35.1421   58.1084   63.6083 N   0  0  0  0  0  0  0  0  0  0  0  0
  -35.9832   58.3144   62.3898 C   0  0  0  0  0  0  0  0  0  0  0  0
  -35.6803   56.9386   64.3681 C   0  0  0  0  0  0  0  0  0  0  0  0
  -33.7394   57.8145   63.1775 C   0  0  0  0  0  0  0  0  0  0  0  0
 34 33  1  0  0  0
 34 35  1  0  0  0
 34 36  1  0  0  0
 34 37  1  0  0  0
 22 23  1  0  0  0
 22 25  1  0  0  0
 22 21  1  0  0  0
 23 24  1  0  0  0
 27 26  1  0  0  0
 27 28  2  0  0  0
 27 31  1  0  0  0
 27 29  1  0  0  0
 25 26  1  0  0  0
 32 33  1  0  0  0
 32 31  1  0  0  0
 29 30  1  0  0  0
 20 21  1  0  0  0
 20  2  1  0  0  0
  1  2  2  0  0  0
  2  3  1  0  0  0
  3  4  1  0  0  0
  4  5  1  0  0  0
  5  6  1  0  0  0
  6  7  1  0  0  0
  7  8  1  0  0  0
  8  9  1  0  0  0
  9 10  1  0  0  0
 10 11  2  0  0  0
 11 12  1  0  0  0
 12 13  1  0  0  0
 13 14  1  0  0  0
 14 15  1  0  0  0
 15 16  1  0  0  0
 16 17  1  0  0  0
 17 18  1  0  0  0
 18 19  1  0  0  0
M  CHG 1  28  -1
M  END
> <minimizedAffinity>
-7.80973

> <CNNscore>
0.8343486190

> <CNNaffinity>
7.0031790733

> <CNN_VS>
5.8430929184

> <CNNaffinity_variance>
0.3095009625

$$$$
/media/chris/experiments/cd1a-new-docking/inputs/ligands/4x6c_ligand.pdb


 37 36  0  0  0  0  0  0  0  0999 V2000
  -42.3674   57.4726   65.6836 O   0  0  0  0  0  0  0  0  0  0  0  0
  -42.4385   58.6603   65.7688 C   0  0  0  0  0  0  0  0  0  0  0  0
  -43.7176   59.4300   65.8195 C   0  0  0  0  0  0  0  0  0  0  0  0
  -44.8602   58.7242   65.1139 C   0  0  0  0  0  0  0  0  0  0  0  0
  -46.2129   59.0556   65.7062 C   0  0  0  0  0  0  0  0  0  0  0  0
  -47.3584   58.9963   64.7232 C   0  0  0  0  0  0  0  0  0  0  0  0
  -48.2297   57.7756   64.8743 C   0  0  0  0  0  0  0  0  0  0  0  0
  -49.6753   58.1268   65.1029 C   0  0  0  0  0  0  0  0  0  0  0  0
  -49.9904   59.5934   65.0967 C   0  0  0  0  0  0  0  0  0  0  0  0
  -51.0403   59.9599   64.1352 C   0  0  0  0  0  0  0  0  0  0  0  0
  -50.9005   60.2780   62.8672 C   0  0  0  0  0  0  0  0  0  0  0  0
  -49.6486   60.3277   62.0705 C   0  0  0  0  0  0  0  0  0  0  0  0
  -49.6516   59.5063   60.7975 C   0  0  0  0  0  0  0  0  0  0  0  0
  -49.8110   58.0333   61.0565 C   0  0  0  0  0  0  0  0  0  0  0  0
  -49.8500   57.1767   59.8169 C   0  0  0  0  0  0  0  0  0  0  0  0
  -49.0240   55.9169   59.9543 C   0  0  0  0  0  0  0  0  0  0  0  0
  -47.8369   55.8344   59.0358 C   0  0  0  0  0  0  0  0  0  0  0  0
  -47.7854   56.9339   58.0521 C   0  0  0  0  0  0  0  0  0  0  0  0
  -47.5788   56.4754   56.6797 C   0  0  0  0  0  0  0  0  0  0  0  0
  -41.3772   59.4649   65.8223 O   0  0  0  0  0  0  0  0  0  0  0  0
  -41.6039   60.8464   66.1800 C   0  0  0  0  0  0  0  0  0  0  0  0
  -40.8098   61.6914   65.2106 C   0  0  0  0  0  0  0  0  0  0  0  0
  -39.4671   61.8179   65.6786 O   0  0  0  0  0  0  0  0  0  0  0  0
  -39.0463   60.9440   65.6939 H   0  0  0  0  0  0  0  0  0  0  0  0
  -40.7726   61.1733   63.7933 C   0  0  0  0  0  0  0  0  0  0  0  0
  -39.4450   60.6824   63.5188 O   0  0  0  0  0  0  0  0  0  0  0  0
  -38.9168   60.6394   62.0193 P   0  0  0  0  0  0  0  0  0  0  0  0
  -40.0210   61.1081   61.1578 O   0  0  0  0  0  0  0  0  0  0  0  0
  -37.6308   61.3638   61.9982 O   0  0  0  0  0  0  0  0  0  0  0  0
  -37.7807   62.2953   62.2232 H   0  0  0  0  0  0  0  0  0  0  0  0
  -38.6102   59.1284   61.6453 O   0  0  0  0  0  0  0  0  0  0  0  0
  -37.2467   58.6449   61.6737 C   0  0  0  0  0  0  0  0  0  0  0  0
  -37.1138   57.8563   62.9567 C   0  0  0  0  0  0  0  0  0  0  0  0
  -35.7306   57.8123   63.5750 N   0  0  0  0  0  0  0  0  0  0  0  0
  -35.7199   56.9747   64.8132 C   0  0  0  0  0  0  0  0  0  0  0  0
  -35.2979   59.1982   63.9320 C   0  0  0  0  0  0  0  0  0  0  0  0
  -34.7616   57.2294   62.5947 C   0  0  0  0  0  0  0  0  0  0  0  0
 34 33  1  0  0  0
 34 35  1  0  0  0
 34 36  1  0  0  0
 34 37  1  0  0  0
 22 23  1  0  0  0
 22 25  1  0  0  0
 22 21  1  0  0  0
 23 24  1  0  0  0
 27 26  1  0  0  0
 27 28  2  0  0  0
 27 31  1  0  0  0
 27 29  1  0  0  0
 25 26  1  0  0  0
 32 33  1  0  0  0
 32 31  1  0  0  0
 29 30  1  0  0  0
 20 21  1  0  0  0
 20  2  1  0  0  0
  1  2  2  0  0  0
  2  3  1  0  0  0
  3  4  1  0  0  0
  4  5  1  0  0  0
  5  6  1  0  0  0
  6  7  1  0  0  0
  7  8  1  0  0  0
  8  9  1  0  0  0
  9 10  1  0  0  0
 10 11  2  0  0  0
 11 12  1  0  0  0
 12 13  1  0  0  0
 13 14  1  0  0  0
 14 15  1  0  0  0
 15 16  1  0  0  0
 16 17  1  0  0  0
 17 18  1  0  0  0
 18 19  1  0  0  0
M  CHG 1  28  -1
M  END
> <minimizedAffinity>
-8.27534

> <CNNscore>
0.7878133655

> <CNNaffinity>
6.8467774391

> <CNN_VS>
5.3939828873

> <CNNaffinity_variance>
0.4094595909

$$$$
/media/chris/experiments/cd1a-new-docking/inputs/ligands/4x6c_ligand.pdb


 37 36  0  0  0  0  0  0  0  0999 V2000
  -42.8857   57.5083   65.7769 O   0  0  0  0  0  0  0  0  0  0  0  0
  -42.9435   58.6463   65.4237 C   0  0  0  0  0  0  0  0  0  0  0  0
  -44.2018   59.4483   65.3554 C   0  0  0  0  0  0  0  0  0  0  0  0
  -45.3353   58.8386   66.1584 C   0  0  0  0  0  0  0  0  0  0  0  0
  -46.6294   59.6131   66.0327 C   0  0  0  0  0  0  0  0  0  0  0  0
  -47.4035   59.3377   64.7652 C   0  0  0  0  0  0  0  0  0  0  0  0
  -48.1855   58.0493   64.7954 C   0  0  0  0  0  0  0  0  0  0  0  0
  -49.6639   58.2790   64.9594 C   0  0  0  0  0  0  0  0  0  0  0  0
  -50.1175   59.6991   64.7924 C   0  0  0  0  0  0  0  0  0  0  0  0
  -51.1221   59.8693   63.7328 C   0  0  0  0  0  0  0  0  0  0  0  0
  -50.9282   59.9071   62.4330 C   0  0  0  0  0  0  0  0  0  0  0  0
  -49.6471   59.7650   61.6959 C   0  0  0  0  0  0  0  0  0  0  0  0
  -49.6374   58.7204   60.5986 C   0  0  0  0  0  0  0  0  0  0  0  0
  -49.6637   57.3150   61.1337 C   0  0  0  0  0  0  0  0  0  0  0  0
  -49.0521   56.2826   60.2216 C   0  0  0  0  0  0  0  0  0  0  0  0
  -48.4437   56.8925   58.9781 C   0  0  0  0  0  0  0  0  0  0  0  0
  -47.1176   56.3128   58.5721 C   0  0  0  0  0  0  0  0  0  0  0  0
  -46.9967   56.1012   57.1161 C   0  0  0  0  0  0  0  0  0  0  0  0
  -48.2551   56.2871   56.3963 C   0  0  0  0  0  0  0  0  0  0  0  0
  -41.8853   59.3561   65.0325 O   0  0  0  0  0  0  0  0  0  0  0  0
  -41.3287   60.2996   65.9747 C   0  0  0  0  0  0  0  0  0  0  0  0
  -41.0366   61.5701   65.2099 C   0  0  0  0  0  0  0  0  0  0  0  0
  -40.0947   62.3580   65.9378 O   0  0  0  0  0  0  0  0  0  0  0  0
  -39.2553   61.8767   66.0068 H   0  0  0  0  0  0  0  0  0  0  0  0
  -40.5064   61.3664   63.8114 C   0  0  0  0  0  0  0  0  0  0  0  0
  -39.0717   61.5076   63.8395 O   0  0  0  0  0  0  0  0  0  0  0  0
  -38.1620   60.4469   63.0800 P   0  0  0  0  0  0  0  0  0  0  0  0
  -39.0177   59.2825   62.7750 O   0  0  0  0  0  0  0  0  0  0  0  0
  -37.5030   61.1652   61.9715 O   0  0  0  0  0  0  0  0  0  0  0  0
  -38.1733   61.4722   61.3413 H   0  0  0  0  0  0  0  0  0  0  0  0
  -37.0213   59.9706   64.0742 O   0  0  0  0  0  0  0  0  0  0  0  0
  -36.5299   60.8771   65.0893 C   0  0  0  0  0  0  0  0  0  0  0  0
  -35.0641   61.0861   64.7834 C   0  0  0  0  0  0  0  0  0  0  0  0
  -34.5822   62.5231   64.7667 N   0  0  0  0  0  0  0  0  0  0  0  0
  -35.6698   63.4514   64.3305 C   0  0  0  0  0  0  0  0  0  0  0  0
  -33.4333   62.6544   63.8189 C   0  0  0  0  0  0  0  0  0  0  0  0
  -34.1374   62.9186   66.1397 C   0  0  0  0  0  0  0  0  0  0  0  0
 34 33  1  0  0  0
 34 35  1  0  0  0
 34 36  1  0  0  0
 34 37  1  0  0  0
 22 23  1  0  0  0
 22 25  1  0  0  0
 22 21  1  0  0  0
 23 24  1  0  0  0
 27 26  1  0  0  0
 27 28  2  0  0  0
 27 31  1  0  0  0
 27 29  1  0  0  0
 25 26  1  0  0  0
 32 33  1  0  0  0
 32 31  1  0  0  0
 29 30  1  0  0  0
 20 21  1  0  0  0
 20  2  1  0  0  0
  1  2  2  0  0  0
  2  3  1  0  0  0
  3  4  1  0  0  0
  4  5  1  0  0  0
  5  6  1  0  0  0
  6  7  1  0  0  0
  7  8  1  0  0  0
  8  9  1  0  0  0
  9 10  1  0  0  0
 10 11  2  0  0  0
 11 12  1  0  0  0
 12 13  1  0  0  0
 13 14  1  0  0  0
 14 15  1  0  0  0
 15 16  1  0  0  0
 16 17  1  0  0  0
 17 18  1  0  0  0
 18 19  1  0  0  0
M  CHG 1  28  -1
M  END
> <minimizedAffinity>
-7.90801

> <CNNscore>
0.7666810751

> <CNNaffinity>
6.6247024536

> <CNN_VS>
5.0790338516

> <CNNaffinity_variance>
0.3162950873

$$$$
/media/chris/experiments/cd1a-new-docking/inputs/ligands/4x6c_ligand.pdb


 37 36  0  0  0  0  0  0  0  0999 V2000
  -42.2026   57.7262   66.2114 O   0  0  0  0  0  0  0  0  0  0  0  0
  -42.3741   58.7994   65.7196 C   0  0  0  0  0  0  0  0  0  0  0  0
  -43.6686   59.2676   65.1399 C   0  0  0  0  0  0  0  0  0  0  0  0
  -44.6241   58.1300   64.8328 C   0  0  0  0  0  0  0  0  0  0  0  0
  -46.0776   58.5453   64.9060 C   0  0  0  0  0  0  0  0  0  0  0  0
  -46.3638   59.6512   65.8944 C   0  0  0  0  0  0  0  0  0  0  0  0
  -47.8164   60.0482   65.9623 C   0  0  0  0  0  0  0  0  0  0  0  0
  -48.5334   59.8275   64.6575 C   0  0  0  0  0  0  0  0  0  0  0  0
  -49.9870   59.4751   64.7731 C   0  0  0  0  0  0  0  0  0  0  0  0
  -50.7853   59.9077   63.6169 C   0  0  0  0  0  0  0  0  0  0  0  0
  -50.9650   59.2777   62.4770 C   0  0  0  0  0  0  0  0  0  0  0  0
  -50.4272   57.9552   62.0694 C   0  0  0  0  0  0  0  0  0  0  0  0
  -51.1098   57.3110   60.8800 C   0  0  0  0  0  0  0  0  0  0  0  0
  -50.3733   57.5458   59.5898 C   0  0  0  0  0  0  0  0  0  0  0  0
  -48.8798   57.3622   59.6750 C   0  0  0  0  0  0  0  0  0  0  0  0
  -48.4674   55.9085   59.6026 C   0  0  0  0  0  0  0  0  0  0  0  0
  -47.2404   55.6386   58.7772 C   0  0  0  0  0  0  0  0  0  0  0  0
  -47.0280   56.6344   57.7083 C   0  0  0  0  0  0  0  0  0  0  0  0
  -46.9713   56.0470   56.3711 C   0  0  0  0  0  0  0  0  0  0  0  0
  -41.4231   59.7275   65.6143 O   0  0  0  0  0  0  0  0  0  0  0  0
  -41.3791   60.5032   64.3960 C   0  0  0  0  0  0  0  0  0  0  0  0
  -40.4258   61.6514   64.6357 C   0  0  0  0  0  0  0  0  0  0  0  0
  -40.5868   62.1332   65.9698 O   0  0  0  0  0  0  0  0  0  0  0  0
  -40.3431   61.4348   66.5974 H   0  0  0  0  0  0  0  0  0  0  0  0
  -38.9675   61.3267   64.4199 C   0  0  0  0  0  0  0  0  0  0  0  0
  -38.2089   61.8710   65.5186 O   0  0  0  0  0  0  0  0  0  0  0  0
  -36.6209   61.7851   65.4968 P   0  0  0  0  0  0  0  0  0  0  0  0
  -36.1644   62.5164   64.2976 O   0  0  0  0  0  0  0  0  0  0  0  0
  -36.1511   62.2203   66.8268 O   0  0  0  0  0  0  0  0  0  0  0  0
  -36.3865   63.1511   66.9643 H   0  0  0  0  0  0  0  0  0  0  0  0
  -36.2094   60.2622   65.3290 O   0  0  0  0  0  0  0  0  0  0  0  0
  -35.3399   59.8698   64.2411 C   0  0  0  0  0  0  0  0  0  0  0  0
  -36.2321   59.2071   63.2162 C   0  0  0  0  0  0  0  0  0  0  0  0
  -36.0788   57.7067   63.0657 N   0  0  0  0  0  0  0  0  0  0  0  0
  -34.8163   57.3636   62.3425 C   0  0  0  0  0  0  0  0  0  0  0  0
  -37.2360   57.1608   62.2921 C   0  0  0  0  0  0  0  0  0  0  0  0
  -36.0440   57.0681   64.4187 C   0  0  0  0  0  0  0  0  0  0  0  0
 34 33  1  0  0  0
 34 35  1  0  0  0
 34 36  1  0  0  0
 34 37  1  0  0  0
 22 23  1  0  0  0
 22 25  1  0  0  0
 22 21  1  0  0  0
 23 24  1  0  0  0
 27 26  1  0  0  0
 27 28  2  0  0  0
 27 31  1  0  0  0
 27 29  1  0  0  0
 25 26  1  0  0  0
 32 33  1  0  0  0
 32 31  1  0  0  0
 29 30  1  0  0  0
 20 21  1  0  0  0
 20  2  1  0  0  0
  1  2  2  0  0  0
  2  3  1  0  0  0
  3  4  1  0  0  0
  4  5  1  0  0  0
  5  6  1  0  0  0
  6  7  1  0  0  0
  7  8  1  0  0  0
  8  9  1  0  0  0
  9 10  1  0  0  0
 10 11  2  0  0  0
 11 12  1  0  0  0
 12 13  1  0  0  0
 13 14  1  0  0  0
 14 15  1  0  0  0
 15 16  1  0  0  0
 16 17  1  0  0  0
 17 18  1  0  0  0
 18 19  1  0  0  0
M  CHG 1  28  -1
M  END
> <minimizedAffinity>
-8.30507

> <CNNscore>
0.7322544456

> <CNNaffinity>
6.8126678467

> <CNN_VS>
4.9886064529

> <CNNaffinity_variance>
0.3916393816

$$$$
/media/chris/experiments/cd1a-new-docking/inputs/ligands/4x6c_ligand.pdb


 37 36  0  0  0  0  0  0  0  0999 V2000
  -41.7316   59.6956   67.0633 O   0  0  0  0  0  0  0  0  0  0  0  0
  -41.7096   59.0799   66.0418 C   0  0  0  0  0  0  0  0  0  0  0  0
  -42.7715   58.1237   65.6070 C   0  0  0  0  0  0  0  0  0  0  0  0
  -44.0568   58.8160   65.1942 C   0  0  0  0  0  0  0  0  0  0  0  0
  -45.0961   57.8565   64.6559 C   0  0  0  0  0  0  0  0  0  0  0  0
  -45.8881   57.1308   65.7180 C   0  0  0  0  0  0  0  0  0  0  0  0
  -47.3584   57.0113   65.4080 C   0  0  0  0  0  0  0  0  0  0  0  0
  -48.0848   58.3211   65.5571 C   0  0  0  0  0  0  0  0  0  0  0  0
  -49.5300   58.3053   65.1553 C   0  0  0  0  0  0  0  0  0  0  0  0
  -50.1329   59.6447   65.0956 C   0  0  0  0  0  0  0  0  0  0  0  0
  -50.8168   60.1805   64.1088 C   0  0  0  0  0  0  0  0  0  0  0  0
  -51.1776   59.5643   62.8070 C   0  0  0  0  0  0  0  0  0  0  0  0
  -50.0337   59.3845   61.8301 C   0  0  0  0  0  0  0  0  0  0  0  0
  -49.7871   57.9419   61.4830 C   0  0  0  0  0  0  0  0  0  0  0  0
  -50.5307   57.4510   60.2674 C   0  0  0  0  0  0  0  0  0  0  0  0
  -49.6096   57.1391   59.1087 C   0  0  0  0  0  0  0  0  0  0  0  0
  -48.2199   56.7199   59.4994 C   0  0  0  0  0  0  0  0  0  0  0  0
  -47.4530   56.1354   58.3816 C   0  0  0  0  0  0  0  0  0  0  0  0
  -46.9882   57.1284   57.4150 C   0  0  0  0  0  0  0  0  0  0  0  0
  -40.7223   59.1584   65.1497 O   0  0  0  0  0  0  0  0  0  0  0  0
  -40.6794   60.3280   64.3023 C   0  0  0  0  0  0  0  0  0  0  0  0
  -39.5247   61.1787   64.7790 C   0  0  0  0  0  0  0  0  0  0  0  0
  -39.9495   61.9855   65.8774 O   0  0  0  0  0  0  0  0  0  0  0  0
  -40.1985   61.4143   66.6209 H   0  0  0  0  0  0  0  0  0  0  0  0
  -38.2961   60.4099   65.2006 C   0  0  0  0  0  0  0  0  0  0  0  0
  -37.6467   61.1315   66.2668 O   0  0  0  0  0  0  0  0  0  0  0  0
  -36.2417   61.8285   66.0029 P   0  0  0  0  0  0  0  0  0  0  0  0
  -35.8020   62.4151   67.2850 O   0  0  0  0  0  0  0  0  0  0  0  0
  -35.3852   60.8259   65.3393 O   0  0  0  0  0  0  0  0  0  0  0  0
  -35.2286   60.0836   65.9437 H   0  0  0  0  0  0  0  0  0  0  0  0
  -36.4625   63.0133   64.9713 O   0  0  0  0  0  0  0  0  0  0  0  0
  -35.8547   62.9452   63.6600 C   0  0  0  0  0  0  0  0  0  0  0  0
  -35.2516   64.3092   63.4118 C   0  0  0  0  0  0  0  0  0  0  0  0
  -33.7794   64.4597   63.7394 N   0  0  0  0  0  0  0  0  0  0  0  0
  -33.5874   65.0564   65.0965 C   0  0  0  0  0  0  0  0  0  0  0  0
  -33.1307   65.3511   62.7294 C   0  0  0  0  0  0  0  0  0  0  0  0
  -33.1193   63.1169   63.7093 C   0  0  0  0  0  0  0  0  0  0  0  0
 34 33  1  0  0  0
 34 35  1  0  0  0
 34 36  1  0  0  0
 34 37  1  0  0  0
 22 23  1  0  0  0
 22 25  1  0  0  0
 22 21  1  0  0  0
 23 24  1  0  0  0
 27 26  1  0  0  0
 27 28  2  0  0  0
 27 31  1  0  0  0
 27 29  1  0  0  0
 25 26  1  0  0  0
 32 33  1  0  0  0
 32 31  1  0  0  0
 29 30  1  0  0  0
 20 21  1  0  0  0
 20  2  1  0  0  0
  1  2  2  0  0  0
  2  3  1  0  0  0
  3  4  1  0  0  0
  4  5  1  0  0  0
  5  6  1  0  0  0
  6  7  1  0  0  0
  7  8  1  0  0  0
  8  9  1  0  0  0
  9 10  1  0  0  0
 10 11  2  0  0  0
 11 12  1  0  0  0
 12 13  1  0  0  0
 13 14  1  0  0  0
 14 15  1  0  0  0
 15 16  1  0  0  0
 16 17  1  0  0  0
 17 18  1  0  0  0
 18 19  1  0  0  0
M  CHG 1  28  -1
M  END
> <minimizedAffinity>
-8.24553

> <CNNscore>
0.7125092149

> <CNNaffinity>
6.3398737907

> <CNN_VS>
4.5172185898

> <CNNaffinity_variance>
0.3310220540

$$$$
/media/chris/experiments/cd1a-new-docking/inputs/ligands/4x6c_ligand.pdb


 37 36  0  0  0  0  0  0  0  0999 V2000
  -41.4769   60.5448   64.2257 O   0  0  0  0  0  0  0  0  0  0  0  0
  -40.9959   60.2657   65.2811 C   0  0  0  0  0  0  0  0  0  0  0  0
  -41.7807   59.9716   66.5175 C   0  0  0  0  0  0  0  0  0  0  0  0
  -43.0167   59.1344   66.2476 C   0  0  0  0  0  0  0  0  0  0  0  0
  -44.0713   59.8786   65.4574 C   0  0  0  0  0  0  0  0  0  0  0  0
  -45.3147   59.0740   65.1598 C   0  0  0  0  0  0  0  0  0  0  0  0
  -46.5389   59.9151   64.9027 C   0  0  0  0  0  0  0  0  0  0  0  0
  -47.5924   59.7343   65.9623 C   0  0  0  0  0  0  0  0  0  0  0  0
  -49.0096   59.8833   65.4935 C   0  0  0  0  0  0  0  0  0  0  0  0
  -49.7193   58.6022   65.3668 C   0  0  0  0  0  0  0  0  0  0  0  0
  -49.8971   57.8798   64.2829 C   0  0  0  0  0  0  0  0  0  0  0  0
  -49.4080   58.1583   62.9090 C   0  0  0  0  0  0  0  0  0  0  0  0
  -50.4451   58.0436   61.8106 C   0  0  0  0  0  0  0  0  0  0  0  0
  -50.0266   57.1059   60.7116 C   0  0  0  0  0  0  0  0  0  0  0  0
  -49.5536   57.7843   59.4515 C   0  0  0  0  0  0  0  0  0  0  0  0
  -48.9234   56.8185   58.4724 C   0  0  0  0  0  0  0  0  0  0  0  0
  -47.5994   57.2579   57.9125 C   0  0  0  0  0  0  0  0  0  0  0  0
  -47.2112   56.5229   56.6925 C   0  0  0  0  0  0  0  0  0  0  0  0
  -47.5556   55.1032   56.7362 C   0  0  0  0  0  0  0  0  0  0  0  0
  -39.6835   60.1867   65.5004 O   0  0  0  0  0  0  0  0  0  0  0  0
  -38.8601   61.2737   65.0227 C   0  0  0  0  0  0  0  0  0  0  0  0
  -37.5920   60.6613   64.4737 C   0  0  0  0  0  0  0  0  0  0  0  0
  -37.4504   59.3316   64.9736 O   0  0  0  0  0  0  0  0  0  0  0  0
  -38.1844   58.7852   64.6515 H   0  0  0  0  0  0  0  0  0  0  0  0
  -37.5051   60.6149   62.9674 C   0  0  0  0  0  0  0  0  0  0  0  0
  -38.1251   59.3964   62.5093 O   0  0  0  0  0  0  0  0  0  0  0  0
  -37.3023   58.3928   61.5900 P   0  0  0  0  0  0  0  0  0  0  0  0
  -37.5400   57.0324   62.1135 O   0  0  0  0  0  0  0  0  0  0  0  0
  -37.6647   58.6991   60.1921 O   0  0  0  0  0  0  0  0  0  0  0  0
  -38.6058   58.5099   60.0532 H   0  0  0  0  0  0  0  0  0  0  0  0
  -35.7590   58.7200   61.7569 O   0  0  0  0  0  0  0  0  0  0  0  0
  -34.9393   57.8932   62.6160 C   0  0  0  0  0  0  0  0  0  0  0  0
  -33.5084   58.2851   62.3253 C   0  0  0  0  0  0  0  0  0  0  0  0
  -32.7604   58.9712   63.4510 N   0  0  0  0  0  0  0  0  0  0  0  0
  -33.4868   60.1925   63.9151 C   0  0  0  0  0  0  0  0  0  0  0  0
  -31.4017   59.3752   62.9755 C   0  0  0  0  0  0  0  0  0  0  0  0
  -32.6198   58.0301   64.6061 C   0  0  0  0  0  0  0  0  0  0  0  0
 34 33  1  0  0  0
 34 35  1  0  0  0
 34 36  1  0  0  0
 34 37  1  0  0  0
 22 23  1  0  0  0
 22 25  1  0  0  0
 22 21  1  0  0  0
 23 24  1  0  0  0
 27 26  1  0  0  0
 27 28  2  0  0  0
 27 31  1  0  0  0
 27 29  1  0  0  0
 25 26  1  0  0  0
 32 33  1  0  0  0
 32 31  1  0  0  0
 29 30  1  0  0  0
 20 21  1  0  0  0
 20  2  1  0  0  0
  1  2  2  0  0  0
  2  3  1  0  0  0
  3  4  1  0  0  0
  4  5  1  0  0  0
  5  6  1  0  0  0
  6  7  1  0  0  0
  7  8  1  0  0  0
  8  9  1  0  0  0
  9 10  1  0  0  0
 10 11  2  0  0  0
 11 12  1  0  0  0
 12 13  1  0  0  0
 13 14  1  0  0  0
 14 15  1  0  0  0
 15 16  1  0  0  0
 16 17  1  0  0  0
 17 18  1  0  0  0
 18 19  1  0  0  0
M  CHG 1  28  -1
M  END
> <minimizedAffinity>
-7.57432

> <CNNscore>
0.6745951772

> <CNNaffinity>
6.3670578003

> <CNN_VS>
4.2951865196

> <CNNaffinity_variance>
0.6151204109

$$$$
/media/chris/experiments/cd1a-new-docking/inputs/ligands/4x6c_ligand.pdb


 37 36  0  0  0  0  0  0  0  0999 V2000
  -42.1172   57.5423   66.2220 O   0  0  0  0  0  0  0  0  0  0  0  0
  -42.0546   58.7014   65.9468 C   0  0  0  0  0  0  0  0  0  0  0  0
  -43.1010   59.7104   66.2905 C   0  0  0  0  0  0  0  0  0  0  0  0
  -44.1581   59.8561   65.2121 C   0  0  0  0  0  0  0  0  0  0  0  0
  -45.5077   59.3160   65.6333 C   0  0  0  0  0  0  0  0  0  0  0  0
  -45.8273   57.9410   65.0957 C   0  0  0  0  0  0  0  0  0  0  0  0
  -47.2626   57.5260   65.2959 C   0  0  0  0  0  0  0  0  0  0  0  0
  -48.2321   58.4918   64.6691 C   0  0  0  0  0  0  0  0  0  0  0  0
  -49.6724   58.2868   65.0349 C   0  0  0  0  0  0  0  0  0  0  0  0
  -50.4238   59.5431   65.1704 C   0  0  0  0  0  0  0  0  0  0  0  0
  -51.0488   60.2172   64.2305 C   0  0  0  0  0  0  0  0  0  0  0  0
  -51.1777   59.8733   62.7919 C   0  0  0  0  0  0  0  0  0  0  0  0
  -49.9882   60.2328   61.9252 C   0  0  0  0  0  0  0  0  0  0  0  0
  -49.7733   59.2584   60.7998 C   0  0  0  0  0  0  0  0  0  0  0  0
  -49.6076   57.8241   61.2321 C   0  0  0  0  0  0  0  0  0  0  0  0
  -49.9965   56.8417   60.1494 C   0  0  0  0  0  0  0  0  0  0  0  0
  -49.4149   57.1302   58.7937 C   0  0  0  0  0  0  0  0  0  0  0  0
  -47.9846   56.7808   58.6881 C   0  0  0  0  0  0  0  0  0  0  0  0
  -47.4788   56.8144   57.3172 C   0  0  0  0  0  0  0  0  0  0  0  0
  -41.0381   59.2524   65.2837 O   0  0  0  0  0  0  0  0  0  0  0  0
  -40.3717   60.3777   65.8981 C   0  0  0  0  0  0  0  0  0  0  0  0
  -39.0558   60.5611   65.1776 C   0  0  0  0  0  0  0  0  0  0  0  0
  -39.1214   61.7265   64.3558 O   0  0  0  0  0  0  0  0  0  0  0  0
  -39.2432   62.5100   64.9147 H   0  0  0  0  0  0  0  0  0  0  0  0
  -37.8474   60.6791   66.0745 C   0  0  0  0  0  0  0  0  0  0  0  0
  -37.3305   62.0214   65.9739 O   0  0  0  0  0  0  0  0  0  0  0  0
  -35.8331   62.3229   66.4169 P   0  0  0  0  0  0  0  0  0  0  0  0
  -35.4280   63.5760   65.7484 O   0  0  0  0  0  0  0  0  0  0  0  0
  -35.8008   62.2510   67.8909 O   0  0  0  0  0  0  0  0  0  0  0  0
  -36.3569   62.9541   68.2612 H   0  0  0  0  0  0  0  0  0  0  0  0
  -34.9099   61.1544   65.8699 O   0  0  0  0  0  0  0  0  0  0  0  0
  -34.6262   61.0676   64.4537 C   0  0  0  0  0  0  0  0  0  0  0  0
  -34.0168   59.7012   64.2364 C   0  0  0  0  0  0  0  0  0  0  0  0
  -34.9385   58.6397   63.6698 N   0  0  0  0  0  0  0  0  0  0  0  0
  -35.3129   57.6377   64.7141 C   0  0  0  0  0  0  0  0  0  0  0  0
  -34.2518   57.9275   62.5488 C   0  0  0  0  0  0  0  0  0  0  0  0
  -36.1874   59.2833   63.1546 C   0  0  0  0  0  0  0  0  0  0  0  0
 34 33  1  0  0  0
 34 35  1  0  0  0
 34 36  1  0  0  0
 34 37  1  0  0  0
 22 23  1  0  0  0
 22 25  1  0  0  0
 22 21  1  0  0  0
 23 24  1  0  0  0
 27 26  1  0  0  0
 27 28  2  0  0  0
 27 31  1  0  0  0
 27 29  1  0  0  0
 25 26  1  0  0  0
 32 33  1  0  0  0
 32 31  1  0  0  0
 29 30  1  0  0  0
 20 21  1  0  0  0
 20  2  1  0  0  0
  1  2  2  0  0  0
  2  3  1  0  0  0
  3  4  1  0  0  0
  4  5  1  0  0  0
  5  6  1  0  0  0
  6  7  1  0  0  0
  7  8  1  0  0  0
  8  9  1  0  0  0
  9 10  1  0  0  0
 10 11  2  0  0  0
 11 12  1  0  0  0
 12 13  1  0  0  0
 13 14  1  0  0  0
 14 15  1  0  0  0
 15 16  1  0  0  0
 16 17  1  0  0  0
 17 18  1  0  0  0
 18 19  1  0  0  0
M  CHG 1  28  -1
M  END
> <minimizedAffinity>
-8.21827

> <CNNscore>
0.6603741050

> <CNNaffinity>
6.4683570862

> <CNN_VS>
4.2715353966

> <CNNaffinity_variance>
0.1732893586

$$$$
