/media/chris/experiments/cd1a-new-docking/inputs/ligands/4x6c_ligand.pdb


 37 36  0  0  0  0  0  0  0  0999 V2000
  -41.9405   58.1023   65.8343 O   0  0  0  0  0  0  0  0  0  0  0  0
  -42.3065   59.1928   65.5183 C   0  0  0  0  0  0  0  0  0  0  0  0
  -43.5882   59.4827   64.8083 C   0  0  0  0  0  0  0  0  0  0  0  0
  -44.7282   58.5885   65.2582 C   0  0  0  0  0  0  0  0  0  0  0  0
  -45.5671   59.2097   66.3540 C   0  0  0  0  0  0  0  0  0  0  0  0
  -47.0252   58.8159   66.3258 C   0  0  0  0  0  0  0  0  0  0  0  0
  -47.6674   58.9498   64.9686 C   0  0  0  0  0  0  0  0  0  0  0  0
  -48.7231   57.9044   64.7276 C   0  0  0  0  0  0  0  0  0  0  0  0
  -50.0929   58.2432   65.2367 C   0  0  0  0  0  0  0  0  0  0  0  0
  -50.4950   59.6279   64.9508 C   0  0  0  0  0  0  0  0  0  0  0  0
  -50.9412   60.1228   63.8174 C   0  0  0  0  0  0  0  0  0  0  0  0
  -51.1767   59.4075   62.5379 C   0  0  0  0  0  0  0  0  0  0  0  0
  -49.9704   59.2778   61.6305 C   0  0  0  0  0  0  0  0  0  0  0  0
  -50.0544   58.0843   60.7190 C   0  0  0  0  0  0  0  0  0  0  0  0
  -48.9135   57.9565   59.7423 C   0  0  0  0  0  0  0  0  0  0  0  0
  -48.6341   56.5200   59.3592 C   0  0  0  0  0  0  0  0  0  0  0  0
  -47.3240   56.2951   58.6571 C   0  0  0  0  0  0  0  0  0  0  0  0
  -47.2757   56.8963   57.3098 C   0  0  0  0  0  0  0  0  0  0  0  0
  -48.0849   56.1802   56.3256 C   0  0  0  0  0  0  0  0  0  0  0  0
  -41.6104   60.3054   65.7518 O   0  0  0  0  0  0  0  0  0  0  0  0
  -41.0911   61.0202   64.6083 C   0  0  0  0  0  0  0  0  0  0  0  0
  -39.6685   61.4101   64.9378 C   0  0  0  0  0  0  0  0  0  0  0  0
  -39.6730   62.4118   65.9550 O   0  0  0  0  0  0  0  0  0  0  0  0
  -40.0554   62.0456   66.7677 H   0  0  0  0  0  0  0  0  0  0  0  0
  -38.7838   60.2746   65.3921 C   0  0  0  0  0  0  0  0  0  0  0  0
  -38.8642   59.2131   64.4199 O   0  0  0  0  0  0  0  0  0  0  0  0
  -37.5365   58.6824   63.7234 P   0  0  0  0  0  0  0  0  0  0  0  0
  -37.8805   57.4177   63.0428 O   0  0  0  0  0  0  0  0  0  0  0  0
  -36.9935   59.8021   62.9293 O   0  0  0  0  0  0  0  0  0  0  0  0
  -37.6174   60.0295   62.2223 H   0  0  0  0  0  0  0  0  0  0  0  0
  -36.4778   58.3561   64.8591 O   0  0  0  0  0  0  0  0  0  0  0  0
  -35.4434   57.3743   64.6147 C   0  0  0  0  0  0  0  0  0  0  0  0
  -34.1334   58.0743   64.8964 C   0  0  0  0  0  0  0  0  0  0  0  0
  -33.3263   58.4969   63.6849 N   0  0  0  0  0  0  0  0  0  0  0  0
  -31.9353   57.9528   63.7474 C   0  0  0  0  0  0  0  0  0  0  0  0
  -33.2534   59.9892   63.6283 C   0  0  0  0  0  0  0  0  0  0  0  0
  -33.9843   57.9871   62.4414 C   0  0  0  0  0  0  0  0  0  0  0  0
 34 33  1  0  0  0
 34 35  1  0  0  0
 34 36  1  0  0  0
 34 37  1  0  0  0
 22 23  1  0  0  0
 22 25  1  0  0  0
 22 21  1  0  0  0
 23 24  1  0  0  0
 27 26  1  0  0  0
 27 28  2  0  0  0
 27 31  1  0  0  0
 27 29  1  0  0  0
 25 26  1  0  0  0
 32 33  1  0  0  0
 32 31  1  0  0  0
 29 30  1  0  0  0
 20 21  1  0  0  0
 20  2  1  0  0  0
  1  2  2  0  0  0
  2  3  1  0  0  0
  3  4  1  0  0  0
  4  5  1  0  0  0
  5  6  1  0  0  0
  6  7  1  0  0  0
  7  8  1  0  0  0
  8  9  1  0  0  0
  9 10  1  0  0  0
 10 11  2  0  0  0
 11 12  1  0  0  0
 12 13  1  0  0  0
 13 14  1  0  0  0
 14 15  1  0  0  0
 15 16  1  0  0  0
 16 17  1  0  0  0
 17 18  1  0  0  0
 18 19  1  0  0  0
M  CHG 1  28  -1
M  END
> <minimizedAffinity>
-7.78935

> <CNNscore>
0.8693578243

> <CNNaffinity>
6.7628312111

> <CNN_VS>
5.8793201447

> <CNNaffinity_variance>
0.5029014349

$$$$
/media/chris/experiments/cd1a-new-docking/inputs/ligands/4x6c_ligand.pdb


 37 36  0  0  0  0  0  0  0  0999 V2000
  -42.4181   57.7609   66.1609 O   0  0  0  0  0  0  0  0  0  0  0  0
  -42.4359   58.7491   65.4931 C   0  0  0  0  0  0  0  0  0  0  0  0
  -43.6672   59.3392   64.8875 C   0  0  0  0  0  0  0  0  0  0  0  0
  -44.9283   58.9921   65.6560 C   0  0  0  0  0  0  0  0  0  0  0  0
  -45.9472   58.2548   64.8141 C   0  0  0  0  0  0  0  0  0  0  0  0
  -47.3502   58.8076   64.9023 C   0  0  0  0  0  0  0  0  0  0  0  0
  -48.4050   57.7592   65.1481 C   0  0  0  0  0  0  0  0  0  0  0  0
  -49.7907   58.3433   65.2125 C   0  0  0  0  0  0  0  0  0  0  0  0
  -49.8952   59.7949   64.8493 C   0  0  0  0  0  0  0  0  0  0  0  0
  -51.0425   60.0975   63.9814 C   0  0  0  0  0  0  0  0  0  0  0  0
  -51.1577   59.8835   62.6893 C   0  0  0  0  0  0  0  0  0  0  0  0
  -50.1683   59.2600   61.7746 C   0  0  0  0  0  0  0  0  0  0  0  0
  -50.2361   57.7500   61.6703 C   0  0  0  0  0  0  0  0  0  0  0  0
  -50.7220   57.2815   60.3262 C   0  0  0  0  0  0  0  0  0  0  0  0
  -49.6505   57.1745   59.2716 C   0  0  0  0  0  0  0  0  0  0  0  0
  -48.3848   56.5297   59.7919 C   0  0  0  0  0  0  0  0  0  0  0  0
  -47.3513   56.2263   58.7432 C   0  0  0  0  0  0  0  0  0  0  0  0
  -47.3868   57.1640   57.6036 C   0  0  0  0  0  0  0  0  0  0  0  0
  -47.5125   56.4984   56.3085 C   0  0  0  0  0  0  0  0  0  0  0  0
  -41.3492   59.4589   65.1896 O   0  0  0  0  0  0  0  0  0  0  0  0
  -41.5453   60.7373   64.5452 C   0  0  0  0  0  0  0  0  0  0  0  0
  -40.2944   61.5512   64.7848 C   0  0  0  0  0  0  0  0  0  0  0  0
  -40.4835   62.3902   65.9243 O   0  0  0  0  0  0  0  0  0  0  0  0
  -40.6119   61.8403   66.7130 H   0  0  0  0  0  0  0  0  0  0  0  0
  -39.0365   60.7430   64.9925 C   0  0  0  0  0  0  0  0  0  0  0  0
  -38.1843   61.4498   65.9160 O   0  0  0  0  0  0  0  0  0  0  0  0
  -36.7283   61.8967   65.4582 P   0  0  0  0  0  0  0  0  0  0  0  0
  -36.8220   62.2861   64.0367 O   0  0  0  0  0  0  0  0  0  0  0  0
  -36.2548   62.8867   66.4455 O   0  0  0  0  0  0  0  0  0  0  0  0
  -36.8208   63.6737   66.4113 H   0  0  0  0  0  0  0  0  0  0  0  0
  -35.7688   60.6373   65.5596 O   0  0  0  0  0  0  0  0  0  0  0  0
  -34.3556   60.7885   65.2882 C   0  0  0  0  0  0  0  0  0  0  0  0
  -34.1134   60.1053   63.9616 C   0  0  0  0  0  0  0  0  0  0  0  0
  -33.3299   58.8085   64.0098 N   0  0  0  0  0  0  0  0  0  0  0  0
  -33.2731   58.2645   65.4011 C   0  0  0  0  0  0  0  0  0  0  0  0
  -31.9333   59.0500   63.5338 C   0  0  0  0  0  0  0  0  0  0  0  0
  -33.9846   57.7941   63.1256 C   0  0  0  0  0  0  0  0  0  0  0  0
 34 33  1  0  0  0
 34 35  1  0  0  0
 34 36  1  0  0  0
 34 37  1  0  0  0
 22 23  1  0  0  0
 22 25  1  0  0  0
 22 21  1  0  0  0
 23 24  1  0  0  0
 27 26  1  0  0  0
 27 28  2  0  0  0
 27 31  1  0  0  0
 27 29  1  0  0  0
 25 26  1  0  0  0
 32 33  1  0  0  0
 32 31  1  0  0  0
 29 30  1  0  0  0
 20 21  1  0  0  0
 20  2  1  0  0  0
  1  2  2  0  0  0
  2  3  1  0  0  0
  3  4  1  0  0  0
  4  5  1  0  0  0
  5  6  1  0  0  0
  6  7  1  0  0  0
  7  8  1  0  0  0
  8  9  1  0  0  0
  9 10  1  0  0  0
 10 11  2  0  0  0
 11 12  1  0  0  0
 12 13  1  0  0  0
 13 14  1  0  0  0
 14 15  1  0  0  0
 15 16  1  0  0  0
 16 17  1  0  0  0
 17 18  1  0  0  0
 18 19  1  0  0  0
M  CHG 1  28  -1
M  END
> <minimizedAffinity>
-8.35006

> <CNNscore>
0.7888857126

> <CNNaffinity>
6.5785665512

> <CNN_VS>
5.1897373199

> <CNNaffinity_variance>
0.2794230878

$$$$
/media/chris/experiments/cd1a-new-docking/inputs/ligands/4x6c_ligand.pdb


 37 36  0  0  0  0  0  0  0  0999 V2000
  -42.5838   57.4585   65.8081 O   0  0  0  0  0  0  0  0  0  0  0  0
  -42.9150   58.6043   65.7920 C   0  0  0  0  0  0  0  0  0  0  0  0
  -44.2405   59.0954   65.3093 C   0  0  0  0  0  0  0  0  0  0  0  0
  -45.1837   59.4586   66.4407 C   0  0  0  0  0  0  0  0  0  0  0  0
  -46.4615   58.6478   66.4257 C   0  0  0  0  0  0  0  0  0  0  0  0
  -47.1988   58.6652   65.1074 C   0  0  0  0  0  0  0  0  0  0  0  0
  -48.1527   57.5121   64.9262 C   0  0  0  0  0  0  0  0  0  0  0  0
  -49.5904   57.9247   65.0945 C   0  0  0  0  0  0  0  0  0  0  0  0
  -49.8168   59.3887   65.3303 C   0  0  0  0  0  0  0  0  0  0  0  0
  -50.8641   59.9621   64.4729 C   0  0  0  0  0  0  0  0  0  0  0  0
  -50.7473   60.4064   63.2409 C   0  0  0  0  0  0  0  0  0  0  0  0
  -49.5328   60.4238   62.3872 C   0  0  0  0  0  0  0  0  0  0  0  0
  -49.6508   59.6879   61.0683 C   0  0  0  0  0  0  0  0  0  0  0  0
  -49.9264   58.2198   61.2444 C   0  0  0  0  0  0  0  0  0  0  0  0
  -50.5327   57.5443   60.0411 C   0  0  0  0  0  0  0  0  0  0  0  0
  -49.4941   57.1287   59.0227 C   0  0  0  0  0  0  0  0  0  0  0  0
  -48.2372   56.5428   59.6029 C   0  0  0  0  0  0  0  0  0  0  0  0
  -47.2325   56.1929   58.5795 C   0  0  0  0  0  0  0  0  0  0  0  0
  -47.1105   57.1929   57.5206 C   0  0  0  0  0  0  0  0  0  0  0  0
  -42.1366   59.6072   66.1983 O   0  0  0  0  0  0  0  0  0  0  0  0
  -40.9313   59.8646   65.4439 C   0  0  0  0  0  0  0  0  0  0  0  0
  -41.0364   61.2737   64.9074 C   0  0  0  0  0  0  0  0  0  0  0  0
  -40.2319   62.1463   65.7008 O   0  0  0  0  0  0  0  0  0  0  0  0
  -39.3002   61.8882   65.6217 H   0  0  0  0  0  0  0  0  0  0  0  0
  -40.6340   61.4385   63.4620 C   0  0  0  0  0  0  0  0  0  0  0  0
  -39.5818   60.4976   63.1684 O   0  0  0  0  0  0  0  0  0  0  0  0
  -38.8968   60.5065   61.7331 P   0  0  0  0  0  0  0  0  0  0  0  0
  -39.9571   60.8040   60.7491 O   0  0  0  0  0  0  0  0  0  0  0  0
  -37.7272   61.4026   61.8233 O   0  0  0  0  0  0  0  0  0  0  0  0
  -38.0262   62.3074   62.0043 H   0  0  0  0  0  0  0  0  0  0  0  0
  -38.3480   59.0476   61.4371 O   0  0  0  0  0  0  0  0  0  0  0  0
  -37.9789   58.1832   62.5373 C   0  0  0  0  0  0  0  0  0  0  0  0
  -36.5608   57.7403   62.2580 C   0  0  0  0  0  0  0  0  0  0  0  0
  -35.5601   57.9548   63.3762 N   0  0  0  0  0  0  0  0  0  0  0  0
  -35.5554   59.3794   63.8293 C   0  0  0  0  0  0  0  0  0  0  0  0
  -34.1892   57.6019   62.8950 C   0  0  0  0  0  0  0  0  0  0  0  0
  -35.9145   57.0835   64.5401 C   0  0  0  0  0  0  0  0  0  0  0  0
 34 33  1  0  0  0
 34 35  1  0  0  0
 34 36  1  0  0  0
 34 37  1  0  0  0
 22 23  1  0  0  0
 22 25  1  0  0  0
 22 21  1  0  0  0
 23 24  1  0  0  0
 27 26  1  0  0  0
 27 28  2  0  0  0
 27 31  1  0  0  0
 27 29  1  0  0  0
 25 26  1  0  0  0
 32 33  1  0  0  0
 32 31  1  0  0  0
 29 30  1  0  0  0
 20 21  1  0  0  0
 20  2  1  0  0  0
  1  2  2  0  0  0
  2  3  1  0  0  0
  3  4  1  0  0  0
  4  5  1  0  0  0
  5  6  1  0  0  0
  6  7  1  0  0  0
  7  8  1  0  0  0
  8  9  1  0  0  0
  9 10  1  0  0  0
 10 11  2  0  0  0
 11 12  1  0  0  0
 12 13  1  0  0  0
 13 14  1  0  0  0
 14 15  1  0  0  0
 15 16  1  0  0  0
 16 17  1  0  0  0
 17 18  1  0  0  0
 18 19  1  0  0  0
M  CHG 1  28  -1
M  END
> <minimizedAffinity>
-8.38351

> <CNNscore>
0.7474995255

> <CNNaffinity>
6.7830033302

> <CNN_VS>
5.0702919960

> <CNNaffinity_variance>
0.3691204190

$$$$
/media/chris/experiments/cd1a-new-docking/inputs/ligands/4x6c_ligand.pdb


 37 36  0  0  0  0  0  0  0  0999 V2000
  -42.6927   57.9709   65.8908 O   0  0  0  0  0  0  0  0  0  0  0  0
  -42.8756   59.1486   65.8410 C   0  0  0  0  0  0  0  0  0  0  0  0
  -44.0833   59.7930   65.2433 C   0  0  0  0  0  0  0  0  0  0  0  0
  -45.3831   59.2374   65.7941 C   0  0  0  0  0  0  0  0  0  0  0  0
  -46.0096   58.1979   64.8901 C   0  0  0  0  0  0  0  0  0  0  0  0
  -47.4180   58.5192   64.4485 C   0  0  0  0  0  0  0  0  0  0  0  0
  -48.4601   57.5809   65.0014 C   0  0  0  0  0  0  0  0  0  0  0  0
  -49.7881   58.2574   65.2114 C   0  0  0  0  0  0  0  0  0  0  0  0
  -49.8481   59.6993   64.8023 C   0  0  0  0  0  0  0  0  0  0  0  0
  -50.9737   60.0050   63.9076 C   0  0  0  0  0  0  0  0  0  0  0  0
  -51.0322   59.8581   62.6023 C   0  0  0  0  0  0  0  0  0  0  0  0
  -49.9852   59.3240   61.6952 C   0  0  0  0  0  0  0  0  0  0  0  0
  -50.0327   57.8295   61.4512 C   0  0  0  0  0  0  0  0  0  0  0  0
  -50.6096   57.4780   60.1074 C   0  0  0  0  0  0  0  0  0  0  0  0
  -49.5875   57.1439   59.0512 C   0  0  0  0  0  0  0  0  0  0  0  0
  -48.3495   56.4914   59.6259 C   0  0  0  0  0  0  0  0  0  0  0  0
  -47.1933   56.3766   58.6719 C   0  0  0  0  0  0  0  0  0  0  0  0
  -47.5084   55.5799   57.4698 C   0  0  0  0  0  0  0  0  0  0  0  0
  -47.4716   56.3572   56.2326 C   0  0  0  0  0  0  0  0  0  0  0  0
  -42.0154   60.0532   66.3087 O   0  0  0  0  0  0  0  0  0  0  0  0
  -40.6581   60.0013   65.8156 C   0  0  0  0  0  0  0  0  0  0  0  0
  -40.4082   61.2910   65.0682 C   0  0  0  0  0  0  0  0  0  0  0  0
  -40.8394   62.3942   65.8653 O   0  0  0  0  0  0  0  0  0  0  0  0
  -40.3072   62.4354   66.6752 H   0  0  0  0  0  0  0  0  0  0  0  0
  -38.9731   61.5277   64.6647 C   0  0  0  0  0  0  0  0  0  0  0  0
  -38.1180   61.1265   65.7540 O   0  0  0  0  0  0  0  0  0  0  0  0
  -36.5622   61.4503   65.6929 P   0  0  0  0  0  0  0  0  0  0  0  0
  -36.3546   62.3636   64.5509 O   0  0  0  0  0  0  0  0  0  0  0  0
  -36.1630   61.8874   67.0452 O   0  0  0  0  0  0  0  0  0  0  0  0
  -36.6199   62.7141   67.2659 H   0  0  0  0  0  0  0  0  0  0  0  0
  -35.7868   60.1001   65.3884 O   0  0  0  0  0  0  0  0  0  0  0  0
  -36.5257   58.9253   64.9790 C   0  0  0  0  0  0  0  0  0  0  0  0
  -36.4057   58.8646   63.4733 C   0  0  0  0  0  0  0  0  0  0  0  0
  -37.5851   58.2677   62.7313 N   0  0  0  0  0  0  0  0  0  0  0  0
  -38.2120   59.2721   61.8186 C   0  0  0  0  0  0  0  0  0  0  0  0
  -38.6136   57.8080   63.7143 C   0  0  0  0  0  0  0  0  0  0  0  0
  -37.1254   57.1007   61.9152 C   0  0  0  0  0  0  0  0  0  0  0  0
 34 33  1  0  0  0
 34 35  1  0  0  0
 34 36  1  0  0  0
 34 37  1  0  0  0
 22 23  1  0  0  0
 22 25  1  0  0  0
 22 21  1  0  0  0
 23 24  1  0  0  0
 27 26  1  0  0  0
 27 28  2  0  0  0
 27 31  1  0  0  0
 27 29  1  0  0  0
 25 26  1  0  0  0
 32 33  1  0  0  0
 32 31  1  0  0  0
 29 30  1  0  0  0
 20 21  1  0  0  0
 20  2  1  0  0  0
  1  2  2  0  0  0
  2  3  1  0  0  0
  3  4  1  0  0  0
  4  5  1  0  0  0
  5  6  1  0  0  0
  6  7  1  0  0  0
  7  8  1  0  0  0
  8  9  1  0  0  0
  9 10  1  0  0  0
 10 11  2  0  0  0
 11 12  1  0  0  0
 12 13  1  0  0  0
 13 14  1  0  0  0
 14 15  1  0  0  0
 15 16  1  0  0  0
 16 17  1  0  0  0
 17 18  1  0  0  0
 18 19  1  0  0  0
M  CHG 1  28  -1
M  END
> <minimizedAffinity>
-8.28233

> <CNNscore>
0.7373546362

> <CNNaffinity>
6.8874030113

> <CNN_VS>
5.0784583092

> <CNNaffinity_variance>
0.2875661850

$$$$
/media/chris/experiments/cd1a-new-docking/inputs/ligands/4x6c_ligand.pdb


 37 36  0  0  0  0  0  0  0  0999 V2000
  -39.9783   61.7543   66.0358 O   0  0  0  0  0  0  0  0  0  0  0  0
  -40.5735   60.7806   65.6882 C   0  0  0  0  0  0  0  0  0  0  0  0
  -41.7098   60.1696   66.4409 C   0  0  0  0  0  0  0  0  0  0  0  0
  -42.0638   58.7786   65.9498 C   0  0  0  0  0  0  0  0  0  0  0  0
  -43.5539   58.5749   65.7810 C   0  0  0  0  0  0  0  0  0  0  0  0
  -43.9808   57.1294   65.6802 C   0  0  0  0  0  0  0  0  0  0  0  0
  -45.4660   56.9425   65.5027 C   0  0  0  0  0  0  0  0  0  0  0  0
  -46.0990   58.0723   64.7357 C   0  0  0  0  0  0  0  0  0  0  0  0
  -47.3369   58.6546   65.3513 C   0  0  0  0  0  0  0  0  0  0  0  0
  -48.5237   57.8021   65.1914 C   0  0  0  0  0  0  0  0  0  0  0  0
  -49.7852   58.1708   65.1545 C   0  0  0  0  0  0  0  0  0  0  0  0
  -50.3381   59.5459   65.2418 C   0  0  0  0  0  0  0  0  0  0  0  0
  -50.9099   60.1031   63.9542 C   0  0  0  0  0  0  0  0  0  0  0  0
  -49.8587   60.3348   62.9037 C   0  0  0  0  0  0  0  0  0  0  0  0
  -50.0749   59.5771   61.6188 C   0  0  0  0  0  0  0  0  0  0  0  0
  -49.4165   58.2151   61.6289 C   0  0  0  0  0  0  0  0  0  0  0  0
  -50.0981   57.1760   60.7830 C   0  0  0  0  0  0  0  0  0  0  0  0
  -50.1599   57.5392   59.3535 C   0  0  0  0  0  0  0  0  0  0  0  0
  -49.0107   57.0657   58.5844 C   0  0  0  0  0  0  0  0  0  0  0  0
  -40.2956   60.0987   64.5771 O   0  0  0  0  0  0  0  0  0  0  0  0
  -40.3443   60.8161   63.3237 C   0  0  0  0  0  0  0  0  0  0  0  0
  -39.2459   60.2561   62.4493 C   0  0  0  0  0  0  0  0  0  0  0  0
  -39.2764   60.9005   61.1758 O   0  0  0  0  0  0  0  0  0  0  0  0
  -39.0878   61.8455   61.2869 H   0  0  0  0  0  0  0  0  0  0  0  0
  -37.8520   60.3842   63.0142 C   0  0  0  0  0  0  0  0  0  0  0  0
  -37.6536   61.7468   63.4417 O   0  0  0  0  0  0  0  0  0  0  0  0
  -36.6061   62.0643   64.5955 P   0  0  0  0  0  0  0  0  0  0  0  0
  -35.5518   62.9113   64.0020 O   0  0  0  0  0  0  0  0  0  0  0  0
  -37.3782   62.5765   65.7447 O   0  0  0  0  0  0  0  0  0  0  0  0
  -37.8012   63.4150   65.5022 H   0  0  0  0  0  0  0  0  0  0  0  0
  -35.9399   60.6979   65.0496 O   0  0  0  0  0  0  0  0  0  0  0  0
  -34.4987   60.5923   65.1237 C   0  0  0  0  0  0  0  0  0  0  0  0
  -34.0686   59.8973   63.8520 C   0  0  0  0  0  0  0  0  0  0  0  0
  -33.7733   58.4148   63.9665 N   0  0  0  0  0  0  0  0  0  0  0  0
  -34.8735   57.6999   64.6828 C   0  0  0  0  0  0  0  0  0  0  0  0
  -32.5005   58.2156   64.7254 C   0  0  0  0  0  0  0  0  0  0  0  0
  -33.6302   57.8251   62.5986 C   0  0  0  0  0  0  0  0  0  0  0  0
 34 33  1  0  0  0
 34 35  1  0  0  0
 34 36  1  0  0  0
 34 37  1  0  0  0
 22 23  1  0  0  0
 22 25  1  0  0  0
 22 21  1  0  0  0
 23 24  1  0  0  0
 27 26  1  0  0  0
 27 28  2  0  0  0
 27 31  1  0  0  0
 27 29  1  0  0  0
 25 26  1  0  0  0
 32 33  1  0  0  0
 32 31  1  0  0  0
 29 30  1  0  0  0
 20 21  1  0  0  0
 20  2  1  0  0  0
  1  2  2  0  0  0
  2  3  1  0  0  0
  3  4  1  0  0  0
  4  5  1  0  0  0
  5  6  1  0  0  0
  6  7  1  0  0  0
  7  8  1  0  0  0
  8  9  1  0  0  0
  9 10  1  0  0  0
 10 11  2  0  0  0
 11 12  1  0  0  0
 12 13  1  0  0  0
 13 14  1  0  0  0
 14 15  1  0  0  0
 15 16  1  0  0  0
 16 17  1  0  0  0
 17 18  1  0  0  0
 18 19  1  0  0  0
M  CHG 1  28  -1
M  END
> <minimizedAffinity>
-7.92588

> <CNNscore>
0.7199401259

> <CNNaffinity>
6.5225019455

> <CNN_VS>
4.6958107948

> <CNNaffinity_variance>
0.3757272661

$$$$
/media/chris/experiments/cd1a-new-docking/inputs/ligands/4x6c_ligand.pdb


 37 36  0  0  0  0  0  0  0  0999 V2000
  -40.0344   61.5403   65.9491 O   0  0  0  0  0  0  0  0  0  0  0  0
  -40.3566   61.0532   64.9089 C   0  0  0  0  0  0  0  0  0  0  0  0
  -41.7523   60.6534   64.5579 C   0  0  0  0  0  0  0  0  0  0  0  0
  -42.5605   60.2097   65.7626 C   0  0  0  0  0  0  0  0  0  0  0  0
  -43.3996   58.9803   65.4889 C   0  0  0  0  0  0  0  0  0  0  0  0
  -44.8668   59.2607   65.2648 C   0  0  0  0  0  0  0  0  0  0  0  0
  -45.7037   58.0210   65.0782 C   0  0  0  0  0  0  0  0  0  0  0  0
  -47.0770   58.3302   64.5454 C   0  0  0  0  0  0  0  0  0  0  0  0
  -47.7232   59.5622   65.1067 C   0  0  0  0  0  0  0  0  0  0  0  0
  -49.1126   59.3475   65.5359 C   0  0  0  0  0  0  0  0  0  0  0  0
  -50.2154   59.6793   64.9015 C   0  0  0  0  0  0  0  0  0  0  0  0
  -50.3448   60.3363   63.5765 C   0  0  0  0  0  0  0  0  0  0  0  0
  -51.0726   59.5336   62.5176 C   0  0  0  0  0  0  0  0  0  0  0  0
  -50.5556   58.1264   62.3973 C   0  0  0  0  0  0  0  0  0  0  0  0
  -50.8059   57.4757   61.0610 C   0  0  0  0  0  0  0  0  0  0  0  0
  -49.8863   57.9971   59.9789 C   0  0  0  0  0  0  0  0  0  0  0  0
  -49.3818   56.9549   59.0201 C   0  0  0  0  0  0  0  0  0  0  0  0
  -47.9868   56.5500   59.2826 C   0  0  0  0  0  0  0  0  0  0  0  0
  -47.5129   55.4912   58.3934 C   0  0  0  0  0  0  0  0  0  0  0  0
  -39.5053   60.7915   63.9172 O   0  0  0  0  0  0  0  0  0  0  0  0
  -39.9722   60.9962   62.5651 C   0  0  0  0  0  0  0  0  0  0  0  0
  -38.7544   60.9898   61.6698 C   0  0  0  0  0  0  0  0  0  0  0  0
  -37.6149   61.4225   62.4131 O   0  0  0  0  0  0  0  0  0  0  0  0
  -37.4367   60.7917   63.1281 H   0  0  0  0  0  0  0  0  0  0  0  0
  -38.4327   59.6570   61.0385 C   0  0  0  0  0  0  0  0  0  0  0  0
  -37.2520   59.1230   61.6706 O   0  0  0  0  0  0  0  0  0  0  0  0
  -37.3193   57.7091   62.3957 P   0  0  0  0  0  0  0  0  0  0  0  0
  -38.5731   57.6819   63.1758 O   0  0  0  0  0  0  0  0  0  0  0  0
  -37.0964   56.6847   61.3565 O   0  0  0  0  0  0  0  0  0  0  0  0
  -37.8224   56.7127   60.7138 H   0  0  0  0  0  0  0  0  0  0  0  0
  -36.1060   57.6162   63.4137 O   0  0  0  0  0  0  0  0  0  0  0  0
  -34.7987   57.2191   62.9372 C   0  0  0  0  0  0  0  0  0  0  0  0
  -34.0441   58.5036   62.6800 C   0  0  0  0  0  0  0  0  0  0  0  0
  -32.7868   58.7167   63.4995 N   0  0  0  0  0  0  0  0  0  0  0  0
  -33.0600   58.5480   64.9595 C   0  0  0  0  0  0  0  0  0  0  0  0
  -32.2669   60.0992   63.2674 C   0  0  0  0  0  0  0  0  0  0  0  0
  -31.7464   57.7224   63.0892 C   0  0  0  0  0  0  0  0  0  0  0  0
 34 33  1  0  0  0
 34 35  1  0  0  0
 34 36  1  0  0  0
 34 37  1  0  0  0
 22 23  1  0  0  0
 22 25  1  0  0  0
 22 21  1  0  0  0
 23 24  1  0  0  0
 27 26  1  0  0  0
 27 28  2  0  0  0
 27 31  1  0  0  0
 27 29  1  0  0  0
 25 26  1  0  0  0
 32 33  1  0  0  0
 32 31  1  0  0  0
 29 30  1  0  0  0
 20 21  1  0  0  0
 20  2  1  0  0  0
  1  2  2  0  0  0
  2  3  1  0  0  0
  3  4  1  0  0  0
  4  5  1  0  0  0
  5  6  1  0  0  0
  6  7  1  0  0  0
  7  8  1  0  0  0
  8  9  1  0  0  0
  9 10  1  0  0  0
 10 11  2  0  0  0
 11 12  1  0  0  0
 12 13  1  0  0  0
 13 14  1  0  0  0
 14 15  1  0  0  0
 15 16  1  0  0  0
 16 17  1  0  0  0
 17 18  1  0  0  0
 18 19  1  0  0  0
M  CHG 1  28  -1
M  END
> <minimizedAffinity>
-7.83864

> <CNNscore>
0.7115389705

> <CNNaffinity>
6.5693435669

> <CNN_VS>
4.6743440628

> <CNNaffinity_variance>
0.7666687369

$$$$
/media/chris/experiments/cd1a-new-docking/inputs/ligands/4x6c_ligand.pdb


 37 36  0  0  0  0  0  0  0  0999 V2000
  -42.0146   58.1007   65.6017 O   0  0  0  0  0  0  0  0  0  0  0  0
  -42.5192   59.1724   65.4610 C   0  0  0  0  0  0  0  0  0  0  0  0
  -43.9458   59.3922   65.0767 C   0  0  0  0  0  0  0  0  0  0  0  0
  -44.7007   58.0974   64.8419 C   0  0  0  0  0  0  0  0  0  0  0  0
  -46.0621   58.0810   65.5026 C   0  0  0  0  0  0  0  0  0  0  0  0
  -47.1341   58.8303   64.7467 C   0  0  0  0  0  0  0  0  0  0  0  0
  -48.2298   57.9476   64.2059 C   0  0  0  0  0  0  0  0  0  0  0  0
  -49.5609   58.2239   64.8518 C   0  0  0  0  0  0  0  0  0  0  0  0
  -50.0121   59.6539   64.8108 C   0  0  0  0  0  0  0  0  0  0  0  0
  -51.0881   59.8980   63.8396 C   0  0  0  0  0  0  0  0  0  0  0  0
  -50.9752   60.1553   62.5551 C   0  0  0  0  0  0  0  0  0  0  0  0
  -49.7330   60.2438   61.7468 C   0  0  0  0  0  0  0  0  0  0  0  0
  -49.6203   59.2475   60.6110 C   0  0  0  0  0  0  0  0  0  0  0  0
  -50.2673   57.9276   60.9293 C   0  0  0  0  0  0  0  0  0  0  0  0
  -49.3745   56.7276   60.7426 C   0  0  0  0  0  0  0  0  0  0  0  0
  -48.5521   56.8062   59.4753 C   0  0  0  0  0  0  0  0  0  0  0  0
  -47.7717   55.5635   59.1488 C   0  0  0  0  0  0  0  0  0  0  0  0
  -46.9636   55.6906   57.9200 C   0  0  0  0  0  0  0  0  0  0  0  0
  -47.7596   55.6453   56.6950 C   0  0  0  0  0  0  0  0  0  0  0  0
  -41.8692   60.3251   65.6214 O   0  0  0  0  0  0  0  0  0  0  0  0
  -41.4905   61.0494   64.4297 C   0  0  0  0  0  0  0  0  0  0  0  0
  -40.0580   61.4935   64.6173 C   0  0  0  0  0  0  0  0  0  0  0  0
  -39.9375   62.2038   65.8498 O   0  0  0  0  0  0  0  0  0  0  0  0
  -40.1420   61.6082   66.5876 H   0  0  0  0  0  0  0  0  0  0  0  0
  -39.0378   60.3811   64.6075 C   0  0  0  0  0  0  0  0  0  0  0  0
  -37.7461   60.9458   64.3053 O   0  0  0  0  0  0  0  0  0  0  0  0
  -36.7368   61.2783   65.4886 P   0  0  0  0  0  0  0  0  0  0  0  0
  -37.3797   60.8369   66.7428 O   0  0  0  0  0  0  0  0  0  0  0  0
  -35.4302   60.7052   65.1096 O   0  0  0  0  0  0  0  0  0  0  0  0
  -35.5036   59.7394   65.0576 H   0  0  0  0  0  0  0  0  0  0  0  0
  -36.5560   62.8529   65.5577 O   0  0  0  0  0  0  0  0  0  0  0  0
  -35.2409   63.4149   65.7776 C   0  0  0  0  0  0  0  0  0  0  0  0
  -34.9882   64.3452   64.6131 C   0  0  0  0  0  0  0  0  0  0  0  0
  -33.5560   64.4320   64.1243 N   0  0  0  0  0  0  0  0  0  0  0  0
  -33.4981   64.8996   62.7055 C   0  0  0  0  0  0  0  0  0  0  0  0
  -32.9159   63.0835   64.2094 C   0  0  0  0  0  0  0  0  0  0  0  0
  -32.7927   65.3959   64.9773 C   0  0  0  0  0  0  0  0  0  0  0  0
 34 33  1  0  0  0
 34 35  1  0  0  0
 34 36  1  0  0  0
 34 37  1  0  0  0
 22 23  1  0  0  0
 22 25  1  0  0  0
 22 21  1  0  0  0
 23 24  1  0  0  0
 27 26  1  0  0  0
 27 28  2  0  0  0
 27 31  1  0  0  0
 27 29  1  0  0  0
 25 26  1  0  0  0
 32 33  1  0  0  0
 32 31  1  0  0  0
 29 30  1  0  0  0
 20 21  1  0  0  0
 20  2  1  0  0  0
  1  2  2  0  0  0
  2  3  1  0  0  0
  3  4  1  0  0  0
  4  5  1  0  0  0
  5  6  1  0  0  0
  6  7  1  0  0  0
  7  8  1  0  0  0
  8  9  1  0  0  0
  9 10  1  0  0  0
 10 11  2  0  0  0
 11 12  1  0  0  0
 12 13  1  0  0  0
 13 14  1  0  0  0
 14 15  1  0  0  0
 15 16  1  0  0  0
 16 17  1  0  0  0
 17 18  1  0  0  0
 18 19  1  0  0  0
M  CHG 1  28  -1
M  END
> <minimizedAffinity>
-7.99381

> <CNNscore>
0.7064955235

> <CNNaffinity>
6.4198670387

> <CNN_VS>
4.5356073380

> <CNNaffinity_variance>
0.3938453197

$$$$
/media/chris/experiments/cd1a-new-docking/inputs/ligands/4x6c_ligand.pdb


 37 36  0  0  0  0  0  0  0  0999 V2000
  -41.3095   61.7920   62.9654 O   0  0  0  0  0  0  0  0  0  0  0  0
  -40.6405   61.0534   63.6210 C   0  0  0  0  0  0  0  0  0  0  0  0
  -41.1848   59.9991   64.5285 C   0  0  0  0  0  0  0  0  0  0  0  0
  -42.6976   59.8981   64.4763 C   0  0  0  0  0  0  0  0  0  0  0  0
  -43.2406   58.7537   65.3045 C   0  0  0  0  0  0  0  0  0  0  0  0
  -44.6109   58.2740   64.8875 C   0  0  0  0  0  0  0  0  0  0  0  0
  -45.1833   57.2068   65.7851 C   0  0  0  0  0  0  0  0  0  0  0  0
  -46.6831   57.1218   65.6914 C   0  0  0  0  0  0  0  0  0  0  0  0
  -47.3109   57.9699   64.6252 C   0  0  0  0  0  0  0  0  0  0  0  0
  -48.7540   58.1737   64.8169 C   0  0  0  0  0  0  0  0  0  0  0  0
  -49.6892   58.2512   63.8960 C   0  0  0  0  0  0  0  0  0  0  0  0
  -49.5345   58.1302   62.4243 C   0  0  0  0  0  0  0  0  0  0  0  0
  -50.8250   58.0122   61.6394 C   0  0  0  0  0  0  0  0  0  0  0  0
  -50.6780   57.1690   60.4026 C   0  0  0  0  0  0  0  0  0  0  0  0
  -49.2874   57.1406   59.8216 C   0  0  0  0  0  0  0  0  0  0  0  0
  -48.8088   55.7360   59.5275 C   0  0  0  0  0  0  0  0  0  0  0  0
  -47.3760   55.6351   59.0838 C   0  0  0  0  0  0  0  0  0  0  0  0
  -47.2203   55.6369   57.6159 C   0  0  0  0  0  0  0  0  0  0  0  0
  -46.8502   56.9426   57.0734 C   0  0  0  0  0  0  0  0  0  0  0  0
  -39.3078   61.0768   63.6370 O   0  0  0  0  0  0  0  0  0  0  0  0
  -38.6242   61.0383   62.3645 C   0  0  0  0  0  0  0  0  0  0  0  0
  -38.5566   59.5889   61.9412 C   0  0  0  0  0  0  0  0  0  0  0  0
  -37.7676   59.4753   60.7568 O   0  0  0  0  0  0  0  0  0  0  0  0
  -36.8574   59.7514   60.9469 H   0  0  0  0  0  0  0  0  0  0  0  0
  -37.9963   58.6460   62.9782 C   0  0  0  0  0  0  0  0  0  0  0  0
  -36.7405   59.1752   63.4489 O   0  0  0  0  0  0  0  0  0  0  0  0
  -35.4224   58.2929   63.3328 P   0  0  0  0  0  0  0  0  0  0  0  0
  -35.3772   57.4230   64.5254 O   0  0  0  0  0  0  0  0  0  0  0  0
  -35.4382   57.6752   61.9921 O   0  0  0  0  0  0  0  0  0  0  0  0
  -36.1945   57.0719   61.9230 H   0  0  0  0  0  0  0  0  0  0  0  0
  -34.1695   59.2647   63.3867 O   0  0  0  0  0  0  0  0  0  0  0  0
  -33.8265   59.9247   64.6278 C   0  0  0  0  0  0  0  0  0  0  0  0
  -33.7444   61.3990   64.3038 C   0  0  0  0  0  0  0  0  0  0  0  0
  -34.7867   62.2865   64.9550 N   0  0  0  0  0  0  0  0  0  0  0  0
  -35.4709   61.5783   66.0798 C   0  0  0  0  0  0  0  0  0  0  0  0
  -35.8139   62.6780   63.9416 C   0  0  0  0  0  0  0  0  0  0  0  0
  -34.1300   63.5184   65.4940 C   0  0  0  0  0  0  0  0  0  0  0  0
 34 33  1  0  0  0
 34 35  1  0  0  0
 34 36  1  0  0  0
 34 37  1  0  0  0
 22 23  1  0  0  0
 22 25  1  0  0  0
 22 21  1  0  0  0
 23 24  1  0  0  0
 27 26  1  0  0  0
 27 28  2  0  0  0
 27 31  1  0  0  0
 27 29  1  0  0  0
 25 26  1  0  0  0
 32 33  1  0  0  0
 32 31  1  0  0  0
 29 30  1  0  0  0
 20 21  1  0  0  0
 20  2  1  0  0  0
  1  2  2  0  0  0
  2  3  1  0  0  0
  3  4  1  0  0  0
  4  5  1  0  0  0
  5  6  1  0  0  0
  6  7  1  0  0  0
  7  8  1  0  0  0
  8  9  1  0  0  0
  9 10  1  0  0  0
 10 11  2  0  0  0
 11 12  1  0  0  0
 12 13  1  0  0  0
 13 14  1  0  0  0
 14 15  1  0  0  0
 15 16  1  0  0  0
 16 17  1  0  0  0
 17 18  1  0  0  0
 18 19  1  0  0  0
M  CHG 1  28  -1
M  END
> <minimizedAffinity>
-7.66873

> <CNNscore>
0.6803525090

> <CNNaffinity>
6.7456526756

> <CNN_VS>
4.5894217491

> <CNNaffinity_variance>
0.9265510440

$$$$
/media/chris/experiments/cd1a-new-docking/inputs/ligands/4x6c_ligand.pdb


 37 36  0  0  0  0  0  0  0  0999 V2000
  -42.0730   58.2972   66.1706 O   0  0  0  0  0  0  0  0  0  0  0  0
  -42.3174   59.2919   65.5593 C   0  0  0  0  0  0  0  0  0  0  0  0
  -43.6701   59.6556   65.0406 C   0  0  0  0  0  0  0  0  0  0  0  0
  -44.5547   58.4471   64.7987 C   0  0  0  0  0  0  0  0  0  0  0  0
  -45.5591   58.2206   65.9079 C   0  0  0  0  0  0  0  0  0  0  0  0
  -46.5948   59.3114   66.0470 C   0  0  0  0  0  0  0  0  0  0  0  0
  -47.6518   59.2901   64.9725 C   0  0  0  0  0  0  0  0  0  0  0  0
  -48.3624   57.9657   64.8925 C   0  0  0  0  0  0  0  0  0  0  0  0
  -49.8533   58.0243   65.0478 C   0  0  0  0  0  0  0  0  0  0  0  0
  -50.3724   59.3935   65.1767 C   0  0  0  0  0  0  0  0  0  0  0  0
  -50.9094   60.1462   64.2419 C   0  0  0  0  0  0  0  0  0  0  0  0
  -51.1521   59.8011   62.8184 C   0  0  0  0  0  0  0  0  0  0  0  0
  -50.0124   60.1079   61.8685 C   0  0  0  0  0  0  0  0  0  0  0  0
  -49.8356   59.0515   60.8125 C   0  0  0  0  0  0  0  0  0  0  0  0
  -49.4926   57.6828   61.3424 C   0  0  0  0  0  0  0  0  0  0  0  0
  -48.9596   56.7602   60.2685 C   0  0  0  0  0  0  0  0  0  0  0  0
  -49.1177   57.2675   58.8623 C   0  0  0  0  0  0  0  0  0  0  0  0
  -48.3083   56.5197   57.8800 C   0  0  0  0  0  0  0  0  0  0  0  0
  -46.9762   57.0852   57.6753 C   0  0  0  0  0  0  0  0  0  0  0  0
  -41.4065   60.2141   65.2484 O   0  0  0  0  0  0  0  0  0  0  0  0
  -40.0170   59.8193   65.2857 C   0  0  0  0  0  0  0  0  0  0  0  0
  -39.1951   61.0877   65.2722 C   0  0  0  0  0  0  0  0  0  0  0  0
  -39.9393   62.1435   65.8803 O   0  0  0  0  0  0  0  0  0  0  0  0
  -40.1028   61.9289   66.8120 H   0  0  0  0  0  0  0  0  0  0  0  0
  -37.8570   60.9892   65.9638 C   0  0  0  0  0  0  0  0  0  0  0  0
  -36.9584   61.9428   65.3624 O   0  0  0  0  0  0  0  0  0  0  0  0
  -35.6353   62.3714   66.1337 P   0  0  0  0  0  0  0  0  0  0  0  0
  -35.3967   63.7960   65.8256 O   0  0  0  0  0  0  0  0  0  0  0  0
  -35.8080   61.9589   67.5405 O   0  0  0  0  0  0  0  0  0  0  0  0
  -36.5433   62.4538   67.9347 H   0  0  0  0  0  0  0  0  0  0  0  0
  -34.4245   61.5326   65.5443 O   0  0  0  0  0  0  0  0  0  0  0  0
  -34.6330   60.6872   64.3886 C   0  0  0  0  0  0  0  0  0  0  0  0
  -34.8208   59.2875   64.9280 C   0  0  0  0  0  0  0  0  0  0  0  0
  -35.6096   58.3333   64.0533 N   0  0  0  0  0  0  0  0  0  0  0  0
  -36.4727   57.4340   64.8786 C   0  0  0  0  0  0  0  0  0  0  0  0
  -34.6668   57.4906   63.2556 C   0  0  0  0  0  0  0  0  0  0  0  0
  -36.4837   59.1132   63.1221 C   0  0  0  0  0  0  0  0  0  0  0  0
 34 33  1  0  0  0
 34 35  1  0  0  0
 34 36  1  0  0  0
 34 37  1  0  0  0
 22 23  1  0  0  0
 22 25  1  0  0  0
 22 21  1  0  0  0
 23 24  1  0  0  0
 27 26  1  0  0  0
 27 28  2  0  0  0
 27 31  1  0  0  0
 27 29  1  0  0  0
 25 26  1  0  0  0
 32 33  1  0  0  0
 32 31  1  0  0  0
 29 30  1  0  0  0
 20 21  1  0  0  0
 20  2  1  0  0  0
  1  2  2  0  0  0
  2  3  1  0  0  0
  3  4  1  0  0  0
  4  5  1  0  0  0
  5  6  1  0  0  0
  6  7  1  0  0  0
  7  8  1  0  0  0
  8  9  1  0  0  0
  9 10  1  0  0  0
 10 11  2  0  0  0
 11 12  1  0  0  0
 12 13  1  0  0  0
 13 14  1  0  0  0
 14 15  1  0  0  0
 15 16  1  0  0  0
 16 17  1  0  0  0
 17 18  1  0  0  0
 18 19  1  0  0  0
M  CHG 1  28  -1
M  END
> <minimizedAffinity>
-8.17646

> <CNNscore>
0.6601821184

> <CNNaffinity>
6.5674643517

> <CNN_VS>
4.3357224464

> <CNNaffinity_variance>
0.3085872531

$$$$
