/media/chris/experiments/cd1a-new-docking/inputs/ligands/4x6c_ligand.pdb


 37 36  0  0  0  0  0  0  0  0999 V2000
  -42.1939   57.9740   65.8619 O   0  0  0  0  0  0  0  0  0  0  0  0
  -42.9190   58.8262   65.4484 C   0  0  0  0  0  0  0  0  0  0  0  0
  -44.2422   58.5722   64.8037 C   0  0  0  0  0  0  0  0  0  0  0  0
  -44.9569   57.3635   65.3778 C   0  0  0  0  0  0  0  0  0  0  0  0
  -46.1541   57.7347   66.2260 C   0  0  0  0  0  0  0  0  0  0  0  0
  -46.4574   59.2139   66.2676 C   0  0  0  0  0  0  0  0  0  0  0  0
  -47.7839   59.5824   65.6536 C   0  0  0  0  0  0  0  0  0  0  0  0
  -48.5374   58.3803   65.1511 C   0  0  0  0  0  0  0  0  0  0  0  0
  -50.0282   58.4439   65.3055 C   0  0  0  0  0  0  0  0  0  0  0  0
  -50.5898   59.7675   64.9996 C   0  0  0  0  0  0  0  0  0  0  0  0
  -51.0532   60.2032   63.8489 C   0  0  0  0  0  0  0  0  0  0  0  0
  -51.1508   59.4645   62.5647 C   0  0  0  0  0  0  0  0  0  0  0  0
  -49.8659   59.3669   61.7679 C   0  0  0  0  0  0  0  0  0  0  0  0
  -49.4657   57.9455   61.4822 C   0  0  0  0  0  0  0  0  0  0  0  0
  -49.9481   57.4098   60.1584 C   0  0  0  0  0  0  0  0  0  0  0  0
  -48.9234   56.5277   59.4798 C   0  0  0  0  0  0  0  0  0  0  0  0
  -48.3028   57.1143   58.2426 C   0  0  0  0  0  0  0  0  0  0  0  0
  -47.0663   56.4225   57.8284 C   0  0  0  0  0  0  0  0  0  0  0  0
  -47.2961   55.3561   56.8555 C   0  0  0  0  0  0  0  0  0  0  0  0
  -42.6384   60.1283   65.5004 O   0  0  0  0  0  0  0  0  0  0  0  0
  -41.2946   60.5073   65.8727 C   0  0  0  0  0  0  0  0  0  0  0  0
  -40.9083   61.6820   65.0036 C   0  0  0  0  0  0  0  0  0  0  0  0
  -39.6092   62.1424   65.3755 O   0  0  0  0  0  0  0  0  0  0  0  0
  -38.9576   61.4446   65.2042 H   0  0  0  0  0  0  0  0  0  0  0  0
  -40.9085   61.4061   63.5197 C   0  0  0  0  0  0  0  0  0  0  0  0
  -39.8811   60.4361   63.2331 O   0  0  0  0  0  0  0  0  0  0  0  0
  -39.0354   60.5591   61.8918 P   0  0  0  0  0  0  0  0  0  0  0  0
  -39.9849   60.8905   60.8103 O   0  0  0  0  0  0  0  0  0  0  0  0
  -37.9171   61.4803   62.1746 O   0  0  0  0  0  0  0  0  0  0  0  0
  -38.2676   62.3623   62.3750 H   0  0  0  0  0  0  0  0  0  0  0  0
  -38.4040   59.1391   61.5725 O   0  0  0  0  0  0  0  0  0  0  0  0
  -37.9725   58.2855   62.6583 C   0  0  0  0  0  0  0  0  0  0  0  0
  -36.4617   58.3394   62.6520 C   0  0  0  0  0  0  0  0  0  0  0  0
  -35.7877   58.3807   64.0091 N   0  0  0  0  0  0  0  0  0  0  0  0
  -35.7290   57.0191   64.6234 C   0  0  0  0  0  0  0  0  0  0  0  0
  -36.5548   59.2837   64.9211 C   0  0  0  0  0  0  0  0  0  0  0  0
  -34.3919   58.8992   63.8601 C   0  0  0  0  0  0  0  0  0  0  0  0
 34 33  1  0  0  0
 34 35  1  0  0  0
 34 36  1  0  0  0
 34 37  1  0  0  0
 22 23  1  0  0  0
 22 25  1  0  0  0
 22 21  1  0  0  0
 23 24  1  0  0  0
 27 26  1  0  0  0
 27 28  2  0  0  0
 27 31  1  0  0  0
 27 29  1  0  0  0
 25 26  1  0  0  0
 32 33  1  0  0  0
 32 31  1  0  0  0
 29 30  1  0  0  0
 20 21  1  0  0  0
 20  2  1  0  0  0
  1  2  2  0  0  0
  2  3  1  0  0  0
  3  4  1  0  0  0
  4  5  1  0  0  0
  5  6  1  0  0  0
  6  7  1  0  0  0
  7  8  1  0  0  0
  8  9  1  0  0  0
  9 10  1  0  0  0
 10 11  2  0  0  0
 11 12  1  0  0  0
 12 13  1  0  0  0
 13 14  1  0  0  0
 14 15  1  0  0  0
 15 16  1  0  0  0
 16 17  1  0  0  0
 17 18  1  0  0  0
 18 19  1  0  0  0
M  CHG 1  28  -1
M  END
> <minimizedAffinity>
-8.35423

> <CNNscore>
0.9293593764

> <CNNaffinity>
7.1794347763

> <CNN_VS>
6.6722750664

> <CNNaffinity_variance>
0.6091845632

$$$$
/media/chris/experiments/cd1a-new-docking/inputs/ligands/4x6c_ligand.pdb


 37 36  0  0  0  0  0  0  0  0999 V2000
  -42.1922   57.7930   66.0932 O   0  0  0  0  0  0  0  0  0  0  0  0
  -42.8610   58.6504   65.6027 C   0  0  0  0  0  0  0  0  0  0  0  0
  -44.1358   58.4099   64.8624 C   0  0  0  0  0  0  0  0  0  0  0  0
  -44.7801   57.0816   65.2113 C   0  0  0  0  0  0  0  0  0  0  0  0
  -45.9281   57.2219   66.1874 C   0  0  0  0  0  0  0  0  0  0  0  0
  -46.4655   58.6270   66.3242 C   0  0  0  0  0  0  0  0  0  0  0  0
  -47.6624   58.9101   65.4526 C   0  0  0  0  0  0  0  0  0  0  0  0
  -48.4872   57.6783   65.1923 C   0  0  0  0  0  0  0  0  0  0  0  0
  -49.9042   57.9296   64.7691 C   0  0  0  0  0  0  0  0  0  0  0  0
  -50.3971   59.2624   65.1456 C   0  0  0  0  0  0  0  0  0  0  0  0
  -50.8661   60.2039   64.3567 C   0  0  0  0  0  0  0  0  0  0  0  0
  -51.0411   60.1577   62.8831 C   0  0  0  0  0  0  0  0  0  0  0  0
  -49.7820   60.3739   62.0686 C   0  0  0  0  0  0  0  0  0  0  0  0
  -49.7364   59.5201   60.8312 C   0  0  0  0  0  0  0  0  0  0  0  0
  -50.0840   58.0704   61.0536 C   0  0  0  0  0  0  0  0  0  0  0  0
  -49.0006   57.1317   60.5701 C   0  0  0  0  0  0  0  0  0  0  0  0
  -48.9289   56.9624   59.0781 C   0  0  0  0  0  0  0  0  0  0  0  0
  -47.6323   56.4299   58.6151 C   0  0  0  0  0  0  0  0  0  0  0  0
  -47.0596   57.1842   57.5018 C   0  0  0  0  0  0  0  0  0  0  0  0
  -42.5524   59.9466   65.6440 O   0  0  0  0  0  0  0  0  0  0  0  0
  -41.4491   60.3436   66.4883 C   0  0  0  0  0  0  0  0  0  0  0  0
  -40.4732   61.0998   65.6165 C   0  0  0  0  0  0  0  0  0  0  0  0
  -40.6161   62.5015   65.8470 O   0  0  0  0  0  0  0  0  0  0  0  0
  -40.3810   62.7036   66.7661 H   0  0  0  0  0  0  0  0  0  0  0  0
  -39.0228   60.7309   65.8126 C   0  0  0  0  0  0  0  0  0  0  0  0
  -38.2148   61.8994   65.5668 O   0  0  0  0  0  0  0  0  0  0  0  0
  -36.6293   61.7737   65.5685 P   0  0  0  0  0  0  0  0  0  0  0  0
  -36.1150   62.7712   64.6085 O   0  0  0  0  0  0  0  0  0  0  0  0
  -36.1967   61.8420   66.9781 O   0  0  0  0  0  0  0  0  0  0  0  0
  -36.4160   62.7142   67.3417 H   0  0  0  0  0  0  0  0  0  0  0  0
  -36.2464   60.3314   65.0297 O   0  0  0  0  0  0  0  0  0  0  0  0
  -36.0597   60.1223   63.6101 C   0  0  0  0  0  0  0  0  0  0  0  0
  -36.1814   58.6313   63.3917 C   0  0  0  0  0  0  0  0  0  0  0  0
  -37.4464   58.1565   62.7047 N   0  0  0  0  0  0  0  0  0  0  0  0
  -38.0567   59.2477   61.8851 C   0  0  0  0  0  0  0  0  0  0  0  0
  -38.4397   57.7188   63.7329 C   0  0  0  0  0  0  0  0  0  0  0  0
  -37.1262   57.0043   61.8051 C   0  0  0  0  0  0  0  0  0  0  0  0
 34 33  1  0  0  0
 34 35  1  0  0  0
 34 36  1  0  0  0
 34 37  1  0  0  0
 22 23  1  0  0  0
 22 25  1  0  0  0
 22 21  1  0  0  0
 23 24  1  0  0  0
 27 26  1  0  0  0
 27 28  2  0  0  0
 27 31  1  0  0  0
 27 29  1  0  0  0
 25 26  1  0  0  0
 32 33  1  0  0  0
 32 31  1  0  0  0
 29 30  1  0  0  0
 20 21  1  0  0  0
 20  2  1  0  0  0
  1  2  2  0  0  0
  2  3  1  0  0  0
  3  4  1  0  0  0
  4  5  1  0  0  0
  5  6  1  0  0  0
  6  7  1  0  0  0
  7  8  1  0  0  0
  8  9  1  0  0  0
  9 10  1  0  0  0
 10 11  2  0  0  0
 11 12  1  0  0  0
 12 13  1  0  0  0
 13 14  1  0  0  0
 14 15  1  0  0  0
 15 16  1  0  0  0
 16 17  1  0  0  0
 17 18  1  0  0  0
 18 19  1  0  0  0
M  CHG 1  28  -1
M  END
> <minimizedAffinity>
-8.21099

> <CNNscore>
0.8594344854

> <CNNaffinity>
7.0703725815

> <CNN_VS>
6.0765218735

> <CNNaffinity_variance>
0.3465203643

$$$$
/media/chris/experiments/cd1a-new-docking/inputs/ligands/4x6c_ligand.pdb


 37 36  0  0  0  0  0  0  0  0999 V2000
  -42.1488   57.9073   65.9978 O   0  0  0  0  0  0  0  0  0  0  0  0
  -42.9161   58.7338   65.6091 C   0  0  0  0  0  0  0  0  0  0  0  0
  -44.1697   58.4361   64.8534 C   0  0  0  0  0  0  0  0  0  0  0  0
  -44.8179   57.1310   65.2751 C   0  0  0  0  0  0  0  0  0  0  0  0
  -45.9701   57.3289   66.2361 C   0  0  0  0  0  0  0  0  0  0  0  0
  -46.3908   58.7679   66.4214 C   0  0  0  0  0  0  0  0  0  0  0  0
  -47.7189   59.1014   65.7910 C   0  0  0  0  0  0  0  0  0  0  0  0
  -48.3872   57.8950   65.1882 C   0  0  0  0  0  0  0  0  0  0  0  0
  -49.8741   57.9996   65.0192 C   0  0  0  0  0  0  0  0  0  0  0  0
  -50.4015   59.3392   65.3166 C   0  0  0  0  0  0  0  0  0  0  0  0
  -50.9036   60.2159   64.4753 C   0  0  0  0  0  0  0  0  0  0  0  0
  -51.0897   60.0725   63.0093 C   0  0  0  0  0  0  0  0  0  0  0  0
  -49.8782   60.4028   62.1617 C   0  0  0  0  0  0  0  0  0  0  0  0
  -49.7030   59.4578   61.0048 C   0  0  0  0  0  0  0  0  0  0  0  0
  -49.7922   57.9971   61.3663 C   0  0  0  0  0  0  0  0  0  0  0  0
  -50.4113   57.1627   60.2667 C   0  0  0  0  0  0  0  0  0  0  0  0
  -49.6902   57.2164   58.9487 C   0  0  0  0  0  0  0  0  0  0  0  0
  -48.2915   56.7516   59.0320 C   0  0  0  0  0  0  0  0  0  0  0  0
  -47.5047   57.0629   57.8401 C   0  0  0  0  0  0  0  0  0  0  0  0
  -42.7509   60.0438   65.7924 O   0  0  0  0  0  0  0  0  0  0  0  0
  -41.4806   60.4895   66.3173 C   0  0  0  0  0  0  0  0  0  0  0  0
  -40.8699   61.4059   65.2820 C   0  0  0  0  0  0  0  0  0  0  0  0
  -40.2155   62.4934   65.9357 O   0  0  0  0  0  0  0  0  0  0  0  0
  -39.4823   62.1539   66.4725 H   0  0  0  0  0  0  0  0  0  0  0  0
  -39.8824   60.7477   64.3494 C   0  0  0  0  0  0  0  0  0  0  0  0
  -39.0444   59.8621   65.1189 O   0  0  0  0  0  0  0  0  0  0  0  0
  -37.5537   60.2939   65.4661 P   0  0  0  0  0  0  0  0  0  0  0  0
  -37.6135   61.1022   66.7007 O   0  0  0  0  0  0  0  0  0  0  0  0
  -36.7377   59.0640   65.4502 O   0  0  0  0  0  0  0  0  0  0  0  0
  -37.0360   58.4690   66.1559 H   0  0  0  0  0  0  0  0  0  0  0  0
  -37.0225   61.2243   64.2959 O   0  0  0  0  0  0  0  0  0  0  0  0
  -35.6126   61.2325   63.9700 C   0  0  0  0  0  0  0  0  0  0  0  0
  -34.9791   62.2445   64.8974 C   0  0  0  0  0  0  0  0  0  0  0  0
  -34.5792   63.5664   64.2727 N   0  0  0  0  0  0  0  0  0  0  0  0
  -35.4434   63.8901   63.0966 C   0  0  0  0  0  0  0  0  0  0  0  0
  -33.1576   63.4937   63.8154 C   0  0  0  0  0  0  0  0  0  0  0  0
  -34.7174   64.6609   65.2839 C   0  0  0  0  0  0  0  0  0  0  0  0
 34 33  1  0  0  0
 34 35  1  0  0  0
 34 36  1  0  0  0
 34 37  1  0  0  0
 22 23  1  0  0  0
 22 25  1  0  0  0
 22 21  1  0  0  0
 23 24  1  0  0  0
 27 26  1  0  0  0
 27 28  2  0  0  0
 27 31  1  0  0  0
 27 29  1  0  0  0
 25 26  1  0  0  0
 32 33  1  0  0  0
 32 31  1  0  0  0
 29 30  1  0  0  0
 20 21  1  0  0  0
 20  2  1  0  0  0
  1  2  2  0  0  0
  2  3  1  0  0  0
  3  4  1  0  0  0
  4  5  1  0  0  0
  5  6  1  0  0  0
  6  7  1  0  0  0
  7  8  1  0  0  0
  8  9  1  0  0  0
  9 10  1  0  0  0
 10 11  2  0  0  0
 11 12  1  0  0  0
 12 13  1  0  0  0
 13 14  1  0  0  0
 14 15  1  0  0  0
 15 16  1  0  0  0
 16 17  1  0  0  0
 17 18  1  0  0  0
 18 19  1  0  0  0
M  CHG 1  28  -1
M  END
> <minimizedAffinity>
-8.04036

> <CNNscore>
0.7125445604

> <CNNaffinity>
6.4198431969

> <CNN_VS>
4.5744242668

> <CNNaffinity_variance>
0.3118556440

$$$$
/media/chris/experiments/cd1a-new-docking/inputs/ligands/4x6c_ligand.pdb


 37 36  0  0  0  0  0  0  0  0999 V2000
  -43.7277   60.1447   65.0979 O   0  0  0  0  0  0  0  0  0  0  0  0
  -42.9545   59.2369   65.1339 C   0  0  0  0  0  0  0  0  0  0  0  0
  -43.3274   57.8184   65.4166 C   0  0  0  0  0  0  0  0  0  0  0  0
  -44.7234   57.4678   64.9374 C   0  0  0  0  0  0  0  0  0  0  0  0
  -45.6803   57.1764   66.0731 C   0  0  0  0  0  0  0  0  0  0  0  0
  -46.7884   58.1903   66.2340 C   0  0  0  0  0  0  0  0  0  0  0  0
  -47.2697   58.7799   64.9328 C   0  0  0  0  0  0  0  0  0  0  0  0
  -48.3216   57.9302   64.2719 C   0  0  0  0  0  0  0  0  0  0  0  0
  -49.6723   57.9542   64.9242 C   0  0  0  0  0  0  0  0  0  0  0  0
  -50.1975   59.3121   65.1267 C   0  0  0  0  0  0  0  0  0  0  0  0
  -50.7651   60.1003   64.2406 C   0  0  0  0  0  0  0  0  0  0  0  0
  -51.0438   59.8155   62.8103 C   0  0  0  0  0  0  0  0  0  0  0  0
  -49.9250   60.1548   61.8466 C   0  0  0  0  0  0  0  0  0  0  0  0
  -49.8048   59.1624   60.7229 C   0  0  0  0  0  0  0  0  0  0  0  0
  -50.0677   57.7313   61.1162 C   0  0  0  0  0  0  0  0  0  0  0  0
  -49.1270   56.7596   60.4383 C   0  0  0  0  0  0  0  0  0  0  0  0
  -49.1483   56.8013   58.9358 C   0  0  0  0  0  0  0  0  0  0  0  0
  -47.8210   57.0569   58.3424 C   0  0  0  0  0  0  0  0  0  0  0  0
  -47.1175   55.8381   57.9475 C   0  0  0  0  0  0  0  0  0  0  0  0
  -41.6436   59.3709   64.9328 O   0  0  0  0  0  0  0  0  0  0  0  0
  -40.8928   60.1298   65.9066 C   0  0  0  0  0  0  0  0  0  0  0  0
  -40.3785   61.3657   65.2048 C   0  0  0  0  0  0  0  0  0  0  0  0
  -40.6549   62.5163   66.0034 O   0  0  0  0  0  0  0  0  0  0  0  0
  -40.1711   62.4518   66.8417 H   0  0  0  0  0  0  0  0  0  0  0  0
  -38.9033   61.3515   64.8854 C   0  0  0  0  0  0  0  0  0  0  0  0
  -38.7364   60.9713   63.5047 O   0  0  0  0  0  0  0  0  0  0  0  0
  -37.9605   59.6299   63.1467 P   0  0  0  0  0  0  0  0  0  0  0  0
  -38.9250   58.5207   63.2893 O   0  0  0  0  0  0  0  0  0  0  0  0
  -37.3052   59.8503   61.8425 O   0  0  0  0  0  0  0  0  0  0  0  0
  -37.9811   59.9821   61.1593 H   0  0  0  0  0  0  0  0  0  0  0  0
  -36.8108   59.4214   64.2200 O   0  0  0  0  0  0  0  0  0  0  0  0
  -35.5407   60.0936   64.0503 C   0  0  0  0  0  0  0  0  0  0  0  0
  -34.5004   59.1678   64.6385 C   0  0  0  0  0  0  0  0  0  0  0  0
  -33.2773   58.9053   63.7825 N   0  0  0  0  0  0  0  0  0  0  0  0
  -32.2590   58.1044   64.5286 C   0  0  0  0  0  0  0  0  0  0  0  0
  -32.6602   60.2062   63.3796 C   0  0  0  0  0  0  0  0  0  0  0  0
  -33.6771   58.1474   62.5557 C   0  0  0  0  0  0  0  0  0  0  0  0
 34 33  1  0  0  0
 34 35  1  0  0  0
 34 36  1  0  0  0
 34 37  1  0  0  0
 22 23  1  0  0  0
 22 25  1  0  0  0
 22 21  1  0  0  0
 23 24  1  0  0  0
 27 26  1  0  0  0
 27 28  2  0  0  0
 27 31  1  0  0  0
 27 29  1  0  0  0
 25 26  1  0  0  0
 32 33  1  0  0  0
 32 31  1  0  0  0
 29 30  1  0  0  0
 20 21  1  0  0  0
 20  2  1  0  0  0
  1  2  2  0  0  0
  2  3  1  0  0  0
  3  4  1  0  0  0
  4  5  1  0  0  0
  5  6  1  0  0  0
  6  7  1  0  0  0
  7  8  1  0  0  0
  8  9  1  0  0  0
  9 10  1  0  0  0
 10 11  2  0  0  0
 11 12  1  0  0  0
 12 13  1  0  0  0
 13 14  1  0  0  0
 14 15  1  0  0  0
 15 16  1  0  0  0
 16 17  1  0  0  0
 17 18  1  0  0  0
 18 19  1  0  0  0
M  CHG 1  28  -1
M  END
> <minimizedAffinity>
-7.79333

> <CNNscore>
0.7101051807

> <CNNaffinity>
6.5635919571

> <CNN_VS>
4.6608405113

> <CNNaffinity_variance>
0.3413406610

$$$$
/media/chris/experiments/cd1a-new-docking/inputs/ligands/4x6c_ligand.pdb


 37 36  0  0  0  0  0  0  0  0999 V2000
  -41.4744   61.1848   62.0007 O   0  0  0  0  0  0  0  0  0  0  0  0
  -41.0532   61.1438   63.1160 C   0  0  0  0  0  0  0  0  0  0  0  0
  -41.8888   60.8872   64.3272 C   0  0  0  0  0  0  0  0  0  0  0  0
  -42.9477   59.8248   64.1003 C   0  0  0  0  0  0  0  0  0  0  0  0
  -43.5077   59.2660   65.3905 C   0  0  0  0  0  0  0  0  0  0  0  0
  -43.5914   57.7584   65.4357 C   0  0  0  0  0  0  0  0  0  0  0  0
  -45.0001   57.2238   65.3913 C   0  0  0  0  0  0  0  0  0  0  0  0
  -46.0289   58.2967   65.6280 C   0  0  0  0  0  0  0  0  0  0  0  0
  -47.0000   58.5164   64.5060 C   0  0  0  0  0  0  0  0  0  0  0  0
  -48.3322   57.9534   64.7697 C   0  0  0  0  0  0  0  0  0  0  0  0
  -49.3714   57.9237   63.9650 C   0  0  0  0  0  0  0  0  0  0  0  0
  -49.4634   58.4305   62.5725 C   0  0  0  0  0  0  0  0  0  0  0  0
  -50.5956   57.8598   61.7431 C   0  0  0  0  0  0  0  0  0  0  0  0
  -50.2169   57.6613   60.3011 C   0  0  0  0  0  0  0  0  0  0  0  0
  -49.5159   56.3595   60.0079 C   0  0  0  0  0  0  0  0  0  0  0  0
  -48.0874   56.5582   59.5511 C   0  0  0  0  0  0  0  0  0  0  0  0
  -47.4995   55.4030   58.7898 C   0  0  0  0  0  0  0  0  0  0  0  0
  -47.0566   55.7680   57.4298 C   0  0  0  0  0  0  0  0  0  0  0  0
  -46.7659   57.1923   57.2770 C   0  0  0  0  0  0  0  0  0  0  0  0
  -39.7719   61.3309   63.4323 O   0  0  0  0  0  0  0  0  0  0  0  0
  -39.1805   60.4225   64.3877 C   0  0  0  0  0  0  0  0  0  0  0  0
  -38.0119   61.1429   65.0201 C   0  0  0  0  0  0  0  0  0  0  0  0
  -38.4842   62.2955   65.7175 O   0  0  0  0  0  0  0  0  0  0  0  0
  -39.0649   62.0187   66.4434 H   0  0  0  0  0  0  0  0  0  0  0  0
  -37.1906   60.3119   65.9757 C   0  0  0  0  0  0  0  0  0  0  0  0
  -36.0538   59.7831   65.2637 O   0  0  0  0  0  0  0  0  0  0  0  0
  -34.6886   60.5986   65.2452 P   0  0  0  0  0  0  0  0  0  0  0  0
  -33.5942   59.6131   65.3563 O   0  0  0  0  0  0  0  0  0  0  0  0
  -34.7383   61.4887   64.0687 O   0  0  0  0  0  0  0  0  0  0  0  0
  -34.7645   60.9542   63.2597 H   0  0  0  0  0  0  0  0  0  0  0  0
  -34.6474   61.5247   66.5327 O   0  0  0  0  0  0  0  0  0  0  0  0
  -34.8931   62.9448   66.4028 C   0  0  0  0  0  0  0  0  0  0  0  0
  -33.5454   63.6134   66.5519 C   0  0  0  0  0  0  0  0  0  0  0  0
  -33.1333   64.5463   65.4305 N   0  0  0  0  0  0  0  0  0  0  0  0
  -32.3664   65.7165   65.9572 C   0  0  0  0  0  0  0  0  0  0  0  0
  -34.3520   65.0513   64.7267 C   0  0  0  0  0  0  0  0  0  0  0  0
  -32.2704   63.8081   64.4558 C   0  0  0  0  0  0  0  0  0  0  0  0
 34 33  1  0  0  0
 34 35  1  0  0  0
 34 36  1  0  0  0
 34 37  1  0  0  0
 22 23  1  0  0  0
 22 25  1  0  0  0
 22 21  1  0  0  0
 23 24  1  0  0  0
 27 26  1  0  0  0
 27 28  2  0  0  0
 27 31  1  0  0  0
 27 29  1  0  0  0
 25 26  1  0  0  0
 32 33  1  0  0  0
 32 31  1  0  0  0
 29 30  1  0  0  0
 20 21  1  0  0  0
 20  2  1  0  0  0
  1  2  2  0  0  0
  2  3  1  0  0  0
  3  4  1  0  0  0
  4  5  1  0  0  0
  5  6  1  0  0  0
  6  7  1  0  0  0
  7  8  1  0  0  0
  8  9  1  0  0  0
  9 10  1  0  0  0
 10 11  2  0  0  0
 11 12  1  0  0  0
 12 13  1  0  0  0
 13 14  1  0  0  0
 14 15  1  0  0  0
 15 16  1  0  0  0
 16 17  1  0  0  0
 17 18  1  0  0  0
 18 19  1  0  0  0
M  CHG 1  28  -1
M  END
> <minimizedAffinity>
-7.54598

> <CNNscore>
0.7088859081

> <CNNaffinity>
6.4419922829

> <CNN_VS>
4.5666375160

> <CNNaffinity_variance>
0.4558187127

$$$$
/media/chris/experiments/cd1a-new-docking/inputs/ligands/4x6c_ligand.pdb


 37 36  0  0  0  0  0  0  0  0999 V2000
  -40.8484   61.3177   62.0912 O   0  0  0  0  0  0  0  0  0  0  0  0
  -40.3288   60.7553   63.0059 C   0  0  0  0  0  0  0  0  0  0  0  0
  -40.8505   60.7547   64.4055 C   0  0  0  0  0  0  0  0  0  0  0  0
  -40.9445   59.3623   65.0004 C   0  0  0  0  0  0  0  0  0  0  0  0
  -42.3402   59.0161   65.4723 C   0  0  0  0  0  0  0  0  0  0  0  0
  -43.4353   59.8549   64.8568 C   0  0  0  0  0  0  0  0  0  0  0  0
  -44.8201   59.4934   65.3301 C   0  0  0  0  0  0  0  0  0  0  0  0
  -45.1903   58.0744   64.9910 C   0  0  0  0  0  0  0  0  0  0  0  0
  -46.6438   57.8391   64.7045 C   0  0  0  0  0  0  0  0  0  0  0  0
  -47.4504   59.0677   64.7359 C   0  0  0  0  0  0  0  0  0  0  0  0
  -48.7129   59.2152   64.4001 C   0  0  0  0  0  0  0  0  0  0  0  0
  -49.6590   58.1749   63.9236 C   0  0  0  0  0  0  0  0  0  0  0  0
  -50.1167   58.3172   62.4863 C   0  0  0  0  0  0  0  0  0  0  0  0
  -49.1659   57.6838   61.5081 C   0  0  0  0  0  0  0  0  0  0  0  0
  -49.8217   57.0879   60.2887 C   0  0  0  0  0  0  0  0  0  0  0  0
  -48.9015   57.0603   59.0883 C   0  0  0  0  0  0  0  0  0  0  0  0
  -47.7591   56.0883   59.1883 C   0  0  0  0  0  0  0  0  0  0  0  0
  -47.2495   55.6527   57.8731 C   0  0  0  0  0  0  0  0  0  0  0  0
  -47.9488   56.2684   56.7470 C   0  0  0  0  0  0  0  0  0  0  0  0
  -39.2003   60.0536   62.9007 O   0  0  0  0  0  0  0  0  0  0  0  0
  -38.5896   59.9634   61.5942 C   0  0  0  0  0  0  0  0  0  0  0  0
  -37.9486   58.5980   61.4977 C   0  0  0  0  0  0  0  0  0  0  0  0
  -36.8802   58.6396   60.5517 O   0  0  0  0  0  0  0  0  0  0  0  0
  -36.1928   59.2470   60.8669 H   0  0  0  0  0  0  0  0  0  0  0  0
  -37.4117   58.0511   62.7980 C   0  0  0  0  0  0  0  0  0  0  0  0
  -36.0801   58.5666   62.9977 O   0  0  0  0  0  0  0  0  0  0  0  0
  -35.6209   59.0165   64.4524 P   0  0  0  0  0  0  0  0  0  0  0  0
  -36.8402   59.1166   65.2796 O   0  0  0  0  0  0  0  0  0  0  0  0
  -34.5451   58.0940   64.8654 O   0  0  0  0  0  0  0  0  0  0  0  0
  -34.9017   57.1952   64.9420 H   0  0  0  0  0  0  0  0  0  0  0  0
  -34.9813   60.4644   64.3441 O   0  0  0  0  0  0  0  0  0  0  0  0
  -34.4494   61.1039   65.5282 C   0  0  0  0  0  0  0  0  0  0  0  0
  -35.0157   62.5056   65.5315 C   0  0  0  0  0  0  0  0  0  0  0  0
  -34.0130   63.6330   65.3859 N   0  0  0  0  0  0  0  0  0  0  0  0
  -33.3654   63.9506   66.6954 C   0  0  0  0  0  0  0  0  0  0  0  0
  -34.7080   64.8591   64.8868 C   0  0  0  0  0  0  0  0  0  0  0  0
  -32.9502   63.2359   64.4102 C   0  0  0  0  0  0  0  0  0  0  0  0
 34 33  1  0  0  0
 34 35  1  0  0  0
 34 36  1  0  0  0
 34 37  1  0  0  0
 22 23  1  0  0  0
 22 25  1  0  0  0
 22 21  1  0  0  0
 23 24  1  0  0  0
 27 26  1  0  0  0
 27 28  2  0  0  0
 27 31  1  0  0  0
 27 29  1  0  0  0
 25 26  1  0  0  0
 32 33  1  0  0  0
 32 31  1  0  0  0
 29 30  1  0  0  0
 20 21  1  0  0  0
 20  2  1  0  0  0
  1  2  2  0  0  0
  2  3  1  0  0  0
  3  4  1  0  0  0
  4  5  1  0  0  0
  5  6  1  0  0  0
  6  7  1  0  0  0
  7  8  1  0  0  0
  8  9  1  0  0  0
  9 10  1  0  0  0
 10 11  2  0  0  0
 11 12  1  0  0  0
 12 13  1  0  0  0
 13 14  1  0  0  0
 14 15  1  0  0  0
 15 16  1  0  0  0
 16 17  1  0  0  0
 17 18  1  0  0  0
 18 19  1  0  0  0
M  CHG 1  28  -1
M  END
> <minimizedAffinity>
-7.35823

> <CNNscore>
0.6824235916

> <CNNaffinity>
6.7772417068

> <CNN_VS>
4.6249494553

> <CNNaffinity_variance>
0.9225276113

$$$$
/media/chris/experiments/cd1a-new-docking/inputs/ligands/4x6c_ligand.pdb


 37 36  0  0  0  0  0  0  0  0999 V2000
  -40.3480   59.1971   65.0010 O   0  0  0  0  0  0  0  0  0  0  0  0
  -40.7121   60.1204   64.3392 C   0  0  0  0  0  0  0  0  0  0  0  0
  -42.1413   60.5022   64.1327 C   0  0  0  0  0  0  0  0  0  0  0  0
  -43.0303   60.1174   65.3002 C   0  0  0  0  0  0  0  0  0  0  0  0
  -44.1055   59.1229   64.9193 C   0  0  0  0  0  0  0  0  0  0  0  0
  -45.5040   59.5279   65.3219 C   0  0  0  0  0  0  0  0  0  0  0  0
  -46.1604   58.5760   66.2891 C   0  0  0  0  0  0  0  0  0  0  0  0
  -47.0543   57.5815   65.5982 C   0  0  0  0  0  0  0  0  0  0  0  0
  -48.1031   58.1717   64.7026 C   0  0  0  0  0  0  0  0  0  0  0  0
  -49.3371   58.5377   65.4128 C   0  0  0  0  0  0  0  0  0  0  0  0
  -50.2504   59.4109   65.0499 C   0  0  0  0  0  0  0  0  0  0  0  0
  -50.2849   60.2381   63.8174 C   0  0  0  0  0  0  0  0  0  0  0  0
  -51.1737   59.7179   62.7062 C   0  0  0  0  0  0  0  0  0  0  0  0
  -50.5357   58.6015   61.9260 C   0  0  0  0  0  0  0  0  0  0  0  0
  -49.8464   59.0342   60.6572 C   0  0  0  0  0  0  0  0  0  0  0  0
  -49.7877   57.9322   59.6224 C   0  0  0  0  0  0  0  0  0  0  0  0
  -49.9166   56.5392   60.1727 C   0  0  0  0  0  0  0  0  0  0  0  0
  -48.7852   55.6634   59.8091 C   0  0  0  0  0  0  0  0  0  0  0  0
  -47.6995   56.3694   59.1314 C   0  0  0  0  0  0  0  0  0  0  0  0
  -39.8850   60.9356   63.6847 O   0  0  0  0  0  0  0  0  0  0  0  0
  -39.9108   60.8939   62.2406 C   0  0  0  0  0  0  0  0  0  0  0  0
  -38.4822   60.7269   61.7762 C   0  0  0  0  0  0  0  0  0  0  0  0
  -37.6114   61.4515   62.6449 O   0  0  0  0  0  0  0  0  0  0  0  0
  -37.6586   61.0750   63.5376 H   0  0  0  0  0  0  0  0  0  0  0  0
  -37.9981   59.2993   61.7000 C   0  0  0  0  0  0  0  0  0  0  0  0
  -37.0073   59.0952   62.7273 O   0  0  0  0  0  0  0  0  0  0  0  0
  -36.6811   57.6198   63.2234 P   0  0  0  0  0  0  0  0  0  0  0  0
  -36.5410   57.6781   64.6925 O   0  0  0  0  0  0  0  0  0  0  0  0
  -37.7039   56.7344   62.6328 O   0  0  0  0  0  0  0  0  0  0  0  0
  -38.5768   56.9692   62.9846 H   0  0  0  0  0  0  0  0  0  0  0  0
  -35.2806   57.1906   62.6137 O   0  0  0  0  0  0  0  0  0  0  0  0
  -34.4589   58.1745   61.9424 C   0  0  0  0  0  0  0  0  0  0  0  0
  -33.0403   57.9037   62.3895 C   0  0  0  0  0  0  0  0  0  0  0  0
  -32.4917   58.8188   63.4662 N   0  0  0  0  0  0  0  0  0  0  0  0
  -31.1228   59.3055   63.1137 C   0  0  0  0  0  0  0  0  0  0  0  0
  -32.4161   58.0772   64.7622 C   0  0  0  0  0  0  0  0  0  0  0  0
  -33.3938   60.0021   63.6261 C   0  0  0  0  0  0  0  0  0  0  0  0
 34 33  1  0  0  0
 34 35  1  0  0  0
 34 36  1  0  0  0
 34 37  1  0  0  0
 22 23  1  0  0  0
 22 25  1  0  0  0
 22 21  1  0  0  0
 23 24  1  0  0  0
 27 26  1  0  0  0
 27 28  2  0  0  0
 27 31  1  0  0  0
 27 29  1  0  0  0
 25 26  1  0  0  0
 32 33  1  0  0  0
 32 31  1  0  0  0
 29 30  1  0  0  0
 20 21  1  0  0  0
 20  2  1  0  0  0
  1  2  2  0  0  0
  2  3  1  0  0  0
  3  4  1  0  0  0
  4  5  1  0  0  0
  5  6  1  0  0  0
  6  7  1  0  0  0
  7  8  1  0  0  0
  8  9  1  0  0  0
  9 10  1  0  0  0
 10 11  2  0  0  0
 11 12  1  0  0  0
 12 13  1  0  0  0
 13 14  1  0  0  0
 14 15  1  0  0  0
 15 16  1  0  0  0
 16 17  1  0  0  0
 17 18  1  0  0  0
 18 19  1  0  0  0
M  CHG 1  28  -1
M  END
> <minimizedAffinity>
-7.62923

> <CNNscore>
0.6749002337

> <CNNaffinity>
6.4604325294

> <CNN_VS>
4.3601474762

> <CNNaffinity_variance>
0.4660968184

$$$$
/media/chris/experiments/cd1a-new-docking/inputs/ligands/4x6c_ligand.pdb


 37 36  0  0  0  0  0  0  0  0999 V2000
  -42.4014   60.1769   67.4421 O   0  0  0  0  0  0  0  0  0  0  0  0
  -42.4247   59.8726   66.2889 C   0  0  0  0  0  0  0  0  0  0  0  0
  -43.6601   59.8265   65.4506 C   0  0  0  0  0  0  0  0  0  0  0  0
  -44.1973   58.4197   65.2669 C   0  0  0  0  0  0  0  0  0  0  0  0
  -45.6419   58.2800   65.6958 C   0  0  0  0  0  0  0  0  0  0  0  0
  -46.3959   59.5855   65.7906 C   0  0  0  0  0  0  0  0  0  0  0  0
  -47.6109   59.6546   64.9010 C   0  0  0  0  0  0  0  0  0  0  0  0
  -48.2363   58.3039   64.6777 C   0  0  0  0  0  0  0  0  0  0  0  0
  -49.6731   58.1831   65.0914 C   0  0  0  0  0  0  0  0  0  0  0  0
  -50.3507   59.4803   65.2295 C   0  0  0  0  0  0  0  0  0  0  0  0
  -50.9746   60.1699   64.3000 C   0  0  0  0  0  0  0  0  0  0  0  0
  -51.1769   59.8073   62.8746 C   0  0  0  0  0  0  0  0  0  0  0  0
  -50.0502   60.1905   61.9369 C   0  0  0  0  0  0  0  0  0  0  0  0
  -49.7706   59.1351   60.9024 C   0  0  0  0  0  0  0  0  0  0  0  0
  -50.0231   57.7216   61.3610 C   0  0  0  0  0  0  0  0  0  0  0  0
  -49.5700   56.6922   60.3493 C   0  0  0  0  0  0  0  0  0  0  0  0
  -49.4246   57.2065   58.9442 C   0  0  0  0  0  0  0  0  0  0  0  0
  -48.1056   56.9116   58.3507 C   0  0  0  0  0  0  0  0  0  0  0  0
  -47.4716   55.7189   58.9091 C   0  0  0  0  0  0  0  0  0  0  0  0
  -41.3434   59.5228   65.5922 O   0  0  0  0  0  0  0  0  0  0  0  0
  -41.0961   60.2177   64.3497 C   0  0  0  0  0  0  0  0  0  0  0  0
  -40.0740   61.2929   64.6388 C   0  0  0  0  0  0  0  0  0  0  0  0
  -40.7231   62.4220   65.2234 O   0  0  0  0  0  0  0  0  0  0  0  0
  -41.1073   62.1679   66.0771 H   0  0  0  0  0  0  0  0  0  0  0  0
  -38.9432   60.8720   65.5456 C   0  0  0  0  0  0  0  0  0  0  0  0
  -38.1240   62.0255   65.8234 O   0  0  0  0  0  0  0  0  0  0  0  0
  -36.5413   61.9099   65.7180 P   0  0  0  0  0  0  0  0  0  0  0  0
  -36.1274   62.6965   64.5386 O   0  0  0  0  0  0  0  0  0  0  0  0
  -35.9977   62.2620   67.0445 O   0  0  0  0  0  0  0  0  0  0  0  0
  -36.2054   63.1885   67.2433 H   0  0  0  0  0  0  0  0  0  0  0  0
  -36.1727   60.3905   65.4483 O   0  0  0  0  0  0  0  0  0  0  0  0
  -35.5779   60.0101   64.1852 C   0  0  0  0  0  0  0  0  0  0  0  0
  -36.1186   58.6337   63.8709 C   0  0  0  0  0  0  0  0  0  0  0  0
  -36.9929   58.5236   62.6376 N   0  0  0  0  0  0  0  0  0  0  0  0
  -38.1386   57.5919   62.8705 C   0  0  0  0  0  0  0  0  0  0  0  0
  -36.1811   58.0060   61.4937 C   0  0  0  0  0  0  0  0  0  0  0  0
  -37.5369   59.8728   62.2866 C   0  0  0  0  0  0  0  0  0  0  0  0
 34 33  1  0  0  0
 34 35  1  0  0  0
 34 36  1  0  0  0
 34 37  1  0  0  0
 22 23  1  0  0  0
 22 25  1  0  0  0
 22 21  1  0  0  0
 23 24  1  0  0  0
 27 26  1  0  0  0
 27 28  2  0  0  0
 27 31  1  0  0  0
 27 29  1  0  0  0
 25 26  1  0  0  0
 32 33  1  0  0  0
 32 31  1  0  0  0
 29 30  1  0  0  0
 20 21  1  0  0  0
 20  2  1  0  0  0
  1  2  2  0  0  0
  2  3  1  0  0  0
  3  4  1  0  0  0
  4  5  1  0  0  0
  5  6  1  0  0  0
  6  7  1  0  0  0
  7  8  1  0  0  0
  8  9  1  0  0  0
  9 10  1  0  0  0
 10 11  2  0  0  0
 11 12  1  0  0  0
 12 13  1  0  0  0
 13 14  1  0  0  0
 14 15  1  0  0  0
 15 16  1  0  0  0
 16 17  1  0  0  0
 17 18  1  0  0  0
 18 19  1  0  0  0
M  CHG 1  28  -1
M  END
> <minimizedAffinity>
-8.13758

> <CNNscore>
0.6575563550

> <CNNaffinity>
6.7448654175

> <CNN_VS>
4.4351291656

> <CNNaffinity_variance>
0.3222402632

$$$$
/media/chris/experiments/cd1a-new-docking/inputs/ligands/4x6c_ligand.pdb


 37 36  0  0  0  0  0  0  0  0999 V2000
  -39.2870   57.6815   64.4499 O   0  0  0  0  0  0  0  0  0  0  0  0
  -39.9266   58.6852   64.5319 C   0  0  0  0  0  0  0  0  0  0  0  0
  -41.1718   58.8313   65.3438 C   0  0  0  0  0  0  0  0  0  0  0  0
  -42.0365   59.9942   64.8952 C   0  0  0  0  0  0  0  0  0  0  0  0
  -43.4905   59.8309   65.2821 C   0  0  0  0  0  0  0  0  0  0  0  0
  -44.1118   58.5252   64.8452 C   0  0  0  0  0  0  0  0  0  0  0  0
  -44.9086   57.8373   65.9243 C   0  0  0  0  0  0  0  0  0  0  0  0
  -46.3570   58.2468   65.9176 C   0  0  0  0  0  0  0  0  0  0  0  0
  -47.1079   57.9373   64.6564 C   0  0  0  0  0  0  0  0  0  0  0  0
  -48.2615   58.8208   64.4334 C   0  0  0  0  0  0  0  0  0  0  0  0
  -49.1194   58.7948   63.4375 C   0  0  0  0  0  0  0  0  0  0  0  0
  -49.1601   57.8524   62.2910 C   0  0  0  0  0  0  0  0  0  0  0  0
  -50.5161   57.6752   61.6388 C   0  0  0  0  0  0  0  0  0  0  0  0
  -50.4516   56.8617   60.3754 C   0  0  0  0  0  0  0  0  0  0  0  0
  -50.0776   57.6432   59.1419 C   0  0  0  0  0  0  0  0  0  0  0  0
  -48.7436   57.2198   58.5674 C   0  0  0  0  0  0  0  0  0  0  0  0
  -48.0934   56.0581   59.2657 C   0  0  0  0  0  0  0  0  0  0  0  0
  -47.0797   55.3755   58.4377 C   0  0  0  0  0  0  0  0  0  0  0  0
  -47.1530   55.7295   57.0216 C   0  0  0  0  0  0  0  0  0  0  0  0
  -39.6163   59.8162   63.8983 O   0  0  0  0  0  0  0  0  0  0  0  0
  -38.2257   60.2081   63.8742 C   0  0  0  0  0  0  0  0  0  0  0  0
  -38.1870   61.7136   64.0022 C   0  0  0  0  0  0  0  0  0  0  0  0
  -38.3520   62.0793   65.3723 O   0  0  0  0  0  0  0  0  0  0  0  0
  -37.6063   61.7378   65.8901 H   0  0  0  0  0  0  0  0  0  0  0  0
  -36.9288   62.3666   63.4838 C   0  0  0  0  0  0  0  0  0  0  0  0
  -36.3535   63.1590   64.5420 O   0  0  0  0  0  0  0  0  0  0  0  0
  -35.0069   63.9634   64.2791 P   0  0  0  0  0  0  0  0  0  0  0  0
  -34.8575   64.0908   62.8153 O   0  0  0  0  0  0  0  0  0  0  0  0
  -35.0707   65.1853   65.1048 O   0  0  0  0  0  0  0  0  0  0  0  0
  -35.8029   65.7436   64.7998 H   0  0  0  0  0  0  0  0  0  0  0  0
  -33.7963   63.0932   64.8218 O   0  0  0  0  0  0  0  0  0  0  0  0
  -33.3252   61.9614   64.0530 C   0  0  0  0  0  0  0  0  0  0  0  0
  -34.0186   60.7496   64.6330 C   0  0  0  0  0  0  0  0  0  0  0  0
  -33.5596   59.4024   64.1115 N   0  0  0  0  0  0  0  0  0  0  0  0
  -33.1389   58.5058   65.2314 C   0  0  0  0  0  0  0  0  0  0  0  0
  -32.3980   59.5923   63.1895 C   0  0  0  0  0  0  0  0  0  0  0  0
  -34.6789   58.7451   63.3669 C   0  0  0  0  0  0  0  0  0  0  0  0
 34 33  1  0  0  0
 34 35  1  0  0  0
 34 36  1  0  0  0
 34 37  1  0  0  0
 22 23  1  0  0  0
 22 25  1  0  0  0
 22 21  1  0  0  0
 23 24  1  0  0  0
 27 26  1  0  0  0
 27 28  2  0  0  0
 27 31  1  0  0  0
 27 29  1  0  0  0
 25 26  1  0  0  0
 32 33  1  0  0  0
 32 31  1  0  0  0
 29 30  1  0  0  0
 20 21  1  0  0  0
 20  2  1  0  0  0
  1  2  2  0  0  0
  2  3  1  0  0  0
  3  4  1  0  0  0
  4  5  1  0  0  0
  5  6  1  0  0  0
  6  7  1  0  0  0
  7  8  1  0  0  0
  8  9  1  0  0  0
  9 10  1  0  0  0
 10 11  2  0  0  0
 11 12  1  0  0  0
 12 13  1  0  0  0
 13 14  1  0  0  0
 14 15  1  0  0  0
 15 16  1  0  0  0
 16 17  1  0  0  0
 17 18  1  0  0  0
 18 19  1  0  0  0
M  CHG 1  28  -1
M  END
> <minimizedAffinity>
-7.77360

> <CNNscore>
0.6545380354

> <CNNaffinity>
6.3092141151

> <CNN_VS>
4.1296205521

> <CNNaffinity_variance>
0.1818179488

$$$$
