/media/chris/experiments/cd1a-new-docking/inputs/ligands/4x6c_ligand.pdb


 37 36  0  0  0  0  0  0  0  0999 V2000
  -42.1208   57.8089   65.7894 O   0  0  0  0  0  0  0  0  0  0  0  0
  -42.7916   58.7062   65.3798 C   0  0  0  0  0  0  0  0  0  0  0  0
  -44.2311   58.5821   65.0007 C   0  0  0  0  0  0  0  0  0  0  0  0
  -44.8168   57.2248   65.3415 C   0  0  0  0  0  0  0  0  0  0  0  0
  -46.2947   57.2846   65.6621 C   0  0  0  0  0  0  0  0  0  0  0  0
  -47.1383   57.9550   64.6035 C   0  0  0  0  0  0  0  0  0  0  0  0
  -48.6223   57.7882   64.8096 C   0  0  0  0  0  0  0  0  0  0  0  0
  -49.2776   59.0475   65.3096 C   0  0  0  0  0  0  0  0  0  0  0  0
  -49.5390   60.0947   64.2679 C   0  0  0  0  0  0  0  0  0  0  0  0
  -50.8823   60.0066   63.6773 C   0  0  0  0  0  0  0  0  0  0  0  0
  -51.2476   59.3613   62.5917 C   0  0  0  0  0  0  0  0  0  0  0  0
  -50.4035   58.5348   61.6924 C   0  0  0  0  0  0  0  0  0  0  0  0
  -51.1074   57.3741   61.0198 C   0  0  0  0  0  0  0  0  0  0  0  0
  -50.1938   56.5766   60.1302 C   0  0  0  0  0  0  0  0  0  0  0  0
  -48.7369   56.9509   60.2268 C   0  0  0  0  0  0  0  0  0  0  0  0
  -47.9791   56.6735   58.9472 C   0  0  0  0  0  0  0  0  0  0  0  0
  -48.8037   56.7530   57.6928 C   0  0  0  0  0  0  0  0  0  0  0  0
  -48.0856   56.2776   56.4939 C   0  0  0  0  0  0  0  0  0  0  0  0
  -46.8425   55.5738   56.8030 C   0  0  0  0  0  0  0  0  0  0  0  0
  -42.3396   59.9469   65.1973 O   0  0  0  0  0  0  0  0  0  0  0  0
  -41.4370   60.4815   66.1910 C   0  0  0  0  0  0  0  0  0  0  0  0
  -40.4266   61.3346   65.4590 C   0  0  0  0  0  0  0  0  0  0  0  0
  -40.4091   62.6445   66.0267 O   0  0  0  0  0  0  0  0  0  0  0  0
  -40.1127   62.5932   66.9489 H   0  0  0  0  0  0  0  0  0  0  0  0
  -39.0162   60.7969   65.4601 C   0  0  0  0  0  0  0  0  0  0  0  0
  -39.0707   59.3655   65.2958 O   0  0  0  0  0  0  0  0  0  0  0  0
  -38.0554   58.6486   64.3036 P   0  0  0  0  0  0  0  0  0  0  0  0
  -38.7841   57.5297   63.6725 O   0  0  0  0  0  0  0  0  0  0  0  0
  -37.4766   59.7035   63.4485 O   0  0  0  0  0  0  0  0  0  0  0  0
  -38.1762   60.1002   62.9063 H   0  0  0  0  0  0  0  0  0  0  0  0
  -36.8697   58.0389   65.1635 O   0  0  0  0  0  0  0  0  0  0  0  0
  -35.7974   57.3263   64.5031 C   0  0  0  0  0  0  0  0  0  0  0  0
  -34.5144   57.9258   65.0323 C   0  0  0  0  0  0  0  0  0  0  0  0
  -33.6722   58.6934   64.0326 N   0  0  0  0  0  0  0  0  0  0  0  0
  -33.9323   60.1626   64.1243 C   0  0  0  0  0  0  0  0  0  0  0  0
  -33.9992   58.2358   62.6473 C   0  0  0  0  0  0  0  0  0  0  0  0
  -32.2216   58.4463   64.3049 C   0  0  0  0  0  0  0  0  0  0  0  0
 34 33  1  0  0  0
 34 35  1  0  0  0
 34 36  1  0  0  0
 34 37  1  0  0  0
 22 23  1  0  0  0
 22 25  1  0  0  0
 22 21  1  0  0  0
 23 24  1  0  0  0
 27 26  1  0  0  0
 27 28  2  0  0  0
 27 31  1  0  0  0
 27 29  1  0  0  0
 25 26  1  0  0  0
 32 33  1  0  0  0
 32 31  1  0  0  0
 29 30  1  0  0  0
 20 21  1  0  0  0
 20  2  1  0  0  0
  1  2  2  0  0  0
  2  3  1  0  0  0
  3  4  1  0  0  0
  4  5  1  0  0  0
  5  6  1  0  0  0
  6  7  1  0  0  0
  7  8  1  0  0  0
  8  9  1  0  0  0
  9 10  1  0  0  0
 10 11  2  0  0  0
 11 12  1  0  0  0
 12 13  1  0  0  0
 13 14  1  0  0  0
 14 15  1  0  0  0
 15 16  1  0  0  0
 16 17  1  0  0  0
 17 18  1  0  0  0
 18 19  1  0  0  0
M  CHG 1  28  -1
M  END
> <minimizedAffinity>
-7.97979

> <CNNscore>
0.9056634307

> <CNNaffinity>
6.8705415726

> <CNN_VS>
6.2223982811

> <CNNaffinity_variance>
0.7834941745

$$$$
/media/chris/experiments/cd1a-new-docking/inputs/ligands/4x6c_ligand.pdb


 37 36  0  0  0  0  0  0  0  0999 V2000
  -42.0239   57.3971   65.7377 O   0  0  0  0  0  0  0  0  0  0  0  0
  -42.8445   58.2623   65.7065 C   0  0  0  0  0  0  0  0  0  0  0  0
  -44.3168   58.0292   65.6101 C   0  0  0  0  0  0  0  0  0  0  0  0
  -45.1025   59.3050   65.3725 C   0  0  0  0  0  0  0  0  0  0  0  0
  -46.5642   59.1743   65.7426 C   0  0  0  0  0  0  0  0  0  0  0  0
  -47.4677   58.7842   64.5966 C   0  0  0  0  0  0  0  0  0  0  0  0
  -48.5480   57.8043   64.9774 C   0  0  0  0  0  0  0  0  0  0  0  0
  -49.8434   58.4856   65.3284 C   0  0  0  0  0  0  0  0  0  0  0  0
  -49.9774   59.9006   64.8489 C   0  0  0  0  0  0  0  0  0  0  0  0
  -51.1726   60.1254   64.0232 C   0  0  0  0  0  0  0  0  0  0  0  0
  -51.3289   59.8761   62.7418 C   0  0  0  0  0  0  0  0  0  0  0  0
  -50.3469   59.2816   61.8002 C   0  0  0  0  0  0  0  0  0  0  0  0
  -50.3823   57.7713   61.6867 C   0  0  0  0  0  0  0  0  0  0  0  0
  -49.1826   57.2136   60.9713 C   0  0  0  0  0  0  0  0  0  0  0  0
  -49.3222   57.1385   59.4724 C   0  0  0  0  0  0  0  0  0  0  0  0
  -48.4176   56.0945   58.8556 C   0  0  0  0  0  0  0  0  0  0  0  0
  -47.0035   56.5442   58.6152 C   0  0  0  0  0  0  0  0  0  0  0  0
  -46.7816   57.0599   57.2500 C   0  0  0  0  0  0  0  0  0  0  0  0
  -47.5714   56.3685   56.2330 C   0  0  0  0  0  0  0  0  0  0  0  0
  -42.5533   59.5625   65.7457 O   0  0  0  0  0  0  0  0  0  0  0  0
  -41.1614   59.9316   65.8651 C   0  0  0  0  0  0  0  0  0  0  0  0
  -40.9796   61.2269   65.1078 C   0  0  0  0  0  0  0  0  0  0  0  0
  -40.2359   62.1459   65.9081 O   0  0  0  0  0  0  0  0  0  0  0  0
  -39.3474   61.7906   66.0672 H   0  0  0  0  0  0  0  0  0  0  0  0
  -40.2906   61.0943   63.7713 C   0  0  0  0  0  0  0  0  0  0  0  0
  -38.9400   61.5818   63.9010 O   0  0  0  0  0  0  0  0  0  0  0  0
  -37.7523   60.8093   63.1784 P   0  0  0  0  0  0  0  0  0  0  0  0
  -37.8065   59.4063   63.6364 O   0  0  0  0  0  0  0  0  0  0  0  0
  -37.8684   61.1002   61.7359 O   0  0  0  0  0  0  0  0  0  0  0  0
  -38.6990   60.7309   61.3975 H   0  0  0  0  0  0  0  0  0  0  0  0
  -36.3809   61.4345   63.6740 O   0  0  0  0  0  0  0  0  0  0  0  0
  -36.3916   62.6163   64.5089 C   0  0  0  0  0  0  0  0  0  0  0  0
  -35.3921   63.5681   63.8917 C   0  0  0  0  0  0  0  0  0  0  0  0
  -34.0605   63.6950   64.6047 N   0  0  0  0  0  0  0  0  0  0  0  0
  -34.1267   63.1095   65.9785 C   0  0  0  0  0  0  0  0  0  0  0  0
  -33.6894   65.1389   64.7181 C   0  0  0  0  0  0  0  0  0  0  0  0
  -33.0049   62.9735   63.8273 C   0  0  0  0  0  0  0  0  0  0  0  0
 34 33  1  0  0  0
 34 35  1  0  0  0
 34 36  1  0  0  0
 34 37  1  0  0  0
 22 23  1  0  0  0
 22 25  1  0  0  0
 22 21  1  0  0  0
 23 24  1  0  0  0
 27 26  1  0  0  0
 27 28  2  0  0  0
 27 31  1  0  0  0
 27 29  1  0  0  0
 25 26  1  0  0  0
 32 33  1  0  0  0
 32 31  1  0  0  0
 29 30  1  0  0  0
 20 21  1  0  0  0
 20  2  1  0  0  0
  1  2  2  0  0  0
  2  3  1  0  0  0
  3  4  1  0  0  0
  4  5  1  0  0  0
  5  6  1  0  0  0
  6  7  1  0  0  0
  7  8  1  0  0  0
  8  9  1  0  0  0
  9 10  1  0  0  0
 10 11  2  0  0  0
 11 12  1  0  0  0
 12 13  1  0  0  0
 13 14  1  0  0  0
 14 15  1  0  0  0
 15 16  1  0  0  0
 16 17  1  0  0  0
 17 18  1  0  0  0
 18 19  1  0  0  0
M  CHG 1  28  -1
M  END
> <minimizedAffinity>
-8.16367

> <CNNscore>
0.7840117812

> <CNNaffinity>
6.5402450562

> <CNN_VS>
5.1276292801

> <CNNaffinity_variance>
0.4014627337

$$$$
/media/chris/experiments/cd1a-new-docking/inputs/ligands/4x6c_ligand.pdb


 37 36  0  0  0  0  0  0  0  0999 V2000
  -44.8115   57.8894   63.8902 O   0  0  0  0  0  0  0  0  0  0  0  0
  -44.8752   57.9173   65.0811 C   0  0  0  0  0  0  0  0  0  0  0  0
  -46.0918   57.5628   65.8720 C   0  0  0  0  0  0  0  0  0  0  0  0
  -47.3364   58.2900   65.3992 C   0  0  0  0  0  0  0  0  0  0  0  0
  -48.4766   57.3518   65.0673 C   0  0  0  0  0  0  0  0  0  0  0  0
  -49.8074   58.0342   64.8550 C   0  0  0  0  0  0  0  0  0  0  0  0
  -49.8018   59.5024   65.1966 C   0  0  0  0  0  0  0  0  0  0  0  0
  -51.0070   60.2226   64.6543 C   0  0  0  0  0  0  0  0  0  0  0  0
  -51.3728   59.8900   63.2381 C   0  0  0  0  0  0  0  0  0  0  0  0
  -50.5065   60.5404   62.2443 C   0  0  0  0  0  0  0  0  0  0  0  0
  -49.6146   59.9791   61.4582 C   0  0  0  0  0  0  0  0  0  0  0  0
  -49.2662   58.5397   61.3531 C   0  0  0  0  0  0  0  0  0  0  0  0
  -49.8242   57.8191   60.1429 C   0  0  0  0  0  0  0  0  0  0  0  0
  -49.7931   56.3228   60.2917 C   0  0  0  0  0  0  0  0  0  0  0  0
  -48.9227   55.6086   59.2896 C   0  0  0  0  0  0  0  0  0  0  0  0
  -47.5523   56.2357   59.1581 C   0  0  0  0  0  0  0  0  0  0  0  0
  -46.6496   55.5796   58.1509 C   0  0  0  0  0  0  0  0  0  0  0  0
  -47.3043   55.3458   56.8487 C   0  0  0  0  0  0  0  0  0  0  0  0
  -47.5325   56.5712   56.0856 C   0  0  0  0  0  0  0  0  0  0  0  0
  -43.8633   58.2790   65.8698 O   0  0  0  0  0  0  0  0  0  0  0  0
  -43.5492   59.6872   65.9492 C   0  0  0  0  0  0  0  0  0  0  0  0
  -42.1823   59.8722   65.3313 C   0  0  0  0  0  0  0  0  0  0  0  0
  -42.2795   60.7600   64.2175 O   0  0  0  0  0  0  0  0  0  0  0  0
  -42.5655   61.6344   64.5251 H   0  0  0  0  0  0  0  0  0  0  0  0
  -41.1234   60.3995   66.2690 C   0  0  0  0  0  0  0  0  0  0  0  0
  -40.4745   61.5242   65.6423 O   0  0  0  0  0  0  0  0  0  0  0  0
  -39.0717   61.3209   64.9209 P   0  0  0  0  0  0  0  0  0  0  0  0
  -39.3219   61.3697   63.4662 O   0  0  0  0  0  0  0  0  0  0  0  0
  -38.1369   62.2918   65.5230 O   0  0  0  0  0  0  0  0  0  0  0  0
  -38.4343   63.1932   65.3237 H   0  0  0  0  0  0  0  0  0  0  0  0
  -38.5365   59.8708   65.2783 O   0  0  0  0  0  0  0  0  0  0  0  0
  -37.1118   59.6330   65.3642 C   0  0  0  0  0  0  0  0  0  0  0  0
  -36.6476   59.3828   63.9473 C   0  0  0  0  0  0  0  0  0  0  0  0
  -36.4442   57.9326   63.5560 N   0  0  0  0  0  0  0  0  0  0  0  0
  -36.1618   57.0853   64.7549 C   0  0  0  0  0  0  0  0  0  0  0  0
  -35.2888   57.8263   62.6131 C   0  0  0  0  0  0  0  0  0  0  0  0
  -37.6782   57.4165   62.8852 C   0  0  0  0  0  0  0  0  0  0  0  0
 34 33  1  0  0  0
 34 35  1  0  0  0
 34 36  1  0  0  0
 34 37  1  0  0  0
 22 23  1  0  0  0
 22 25  1  0  0  0
 22 21  1  0  0  0
 23 24  1  0  0  0
 27 26  1  0  0  0
 27 28  2  0  0  0
 27 31  1  0  0  0
 27 29  1  0  0  0
 25 26  1  0  0  0
 32 33  1  0  0  0
 32 31  1  0  0  0
 29 30  1  0  0  0
 20 21  1  0  0  0
 20  2  1  0  0  0
  1  2  2  0  0  0
  2  3  1  0  0  0
  3  4  1  0  0  0
  4  5  1  0  0  0
  5  6  1  0  0  0
  6  7  1  0  0  0
  7  8  1  0  0  0
  8  9  1  0  0  0
  9 10  1  0  0  0
 10 11  2  0  0  0
 11 12  1  0  0  0
 12 13  1  0  0  0
 13 14  1  0  0  0
 14 15  1  0  0  0
 15 16  1  0  0  0
 16 17  1  0  0  0
 17 18  1  0  0  0
 18 19  1  0  0  0
M  CHG 1  28  -1
M  END
> <minimizedAffinity>
-7.89277

> <CNNscore>
0.7572181821

> <CNNaffinity>
6.7855377197

> <CNN_VS>
5.1381325722

> <CNNaffinity_variance>
0.2455412894

$$$$
/media/chris/experiments/cd1a-new-docking/inputs/ligands/4x6c_ligand.pdb


 37 36  0  0  0  0  0  0  0  0999 V2000
  -41.0467   58.6701   65.4602 O   0  0  0  0  0  0  0  0  0  0  0  0
  -41.3112   59.6750   64.8744 C   0  0  0  0  0  0  0  0  0  0  0  0
  -42.6948   60.1007   64.5061 C   0  0  0  0  0  0  0  0  0  0  0  0
  -43.7125   59.8051   65.5915 C   0  0  0  0  0  0  0  0  0  0  0  0
  -44.8918   58.9999   65.0900 C   0  0  0  0  0  0  0  0  0  0  0  0
  -46.2406   59.6046   65.4012 C   0  0  0  0  0  0  0  0  0  0  0  0
  -47.4028   58.8255   64.8403 C   0  0  0  0  0  0  0  0  0  0  0  0
  -48.6770   59.6263   64.8253 C   0  0  0  0  0  0  0  0  0  0  0  0
  -48.9197   60.4272   63.5804 C   0  0  0  0  0  0  0  0  0  0  0  0
  -50.3148   60.3795   63.1196 C   0  0  0  0  0  0  0  0  0  0  0  0
  -50.9261   59.3993   62.4918 C   0  0  0  0  0  0  0  0  0  0  0  0
  -50.3734   58.0766   62.1053 C   0  0  0  0  0  0  0  0  0  0  0  0
  -51.0882   57.3771   60.9674 C   0  0  0  0  0  0  0  0  0  0  0  0
  -50.1683   57.0287   59.8296 C   0  0  0  0  0  0  0  0  0  0  0  0
  -49.0787   56.0475   60.1790 C   0  0  0  0  0  0  0  0  0  0  0  0
  -47.8151   56.2722   59.3782 C   0  0  0  0  0  0  0  0  0  0  0  0
  -47.9874   57.1171   58.1468 C   0  0  0  0  0  0  0  0  0  0  0  0
  -48.1851   56.3218   56.9191 C   0  0  0  0  0  0  0  0  0  0  0  0
  -46.9735   55.6403   56.4677 C   0  0  0  0  0  0  0  0  0  0  0  0
  -40.3989   60.5545   64.4608 O   0  0  0  0  0  0  0  0  0  0  0  0
  -40.4179   60.9299   63.0656 C   0  0  0  0  0  0  0  0  0  0  0  0
  -39.2034   60.3023   62.4209 C   0  0  0  0  0  0  0  0  0  0  0  0
  -38.8610   61.0300   61.2414 O   0  0  0  0  0  0  0  0  0  0  0  0
  -38.6105   61.9358   61.4817 H   0  0  0  0  0  0  0  0  0  0  0  0
  -37.9810   60.2234   63.3029 C   0  0  0  0  0  0  0  0  0  0  0  0
  -37.4332   61.5492   63.4475 O   0  0  0  0  0  0  0  0  0  0  0  0
  -36.9410   62.0453   64.8762 P   0  0  0  0  0  0  0  0  0  0  0  0
  -36.1110   63.2467   64.6550 O   0  0  0  0  0  0  0  0  0  0  0  0
  -38.1409   62.1471   65.7299 O   0  0  0  0  0  0  0  0  0  0  0  0
  -38.7320   62.8302   65.3767 H   0  0  0  0  0  0  0  0  0  0  0  0
  -36.0156   60.9177   65.5002 O   0  0  0  0  0  0  0  0  0  0  0  0
  -34.5768   61.0349   65.4017 C   0  0  0  0  0  0  0  0  0  0  0  0
  -34.1983   60.3934   64.0861 C   0  0  0  0  0  0  0  0  0  0  0  0
  -33.8536   58.9181   64.1355 N   0  0  0  0  0  0  0  0  0  0  0  0
  -33.3816   58.5202   65.4971 C   0  0  0  0  0  0  0  0  0  0  0  0
  -32.7690   58.6245   63.1492 C   0  0  0  0  0  0  0  0  0  0  0  0
  -35.0648   58.1087   63.7933 C   0  0  0  0  0  0  0  0  0  0  0  0
 34 33  1  0  0  0
 34 35  1  0  0  0
 34 36  1  0  0  0
 34 37  1  0  0  0
 22 23  1  0  0  0
 22 25  1  0  0  0
 22 21  1  0  0  0
 23 24  1  0  0  0
 27 26  1  0  0  0
 27 28  2  0  0  0
 27 31  1  0  0  0
 27 29  1  0  0  0
 25 26  1  0  0  0
 32 33  1  0  0  0
 32 31  1  0  0  0
 29 30  1  0  0  0
 20 21  1  0  0  0
 20  2  1  0  0  0
  1  2  2  0  0  0
  2  3  1  0  0  0
  3  4  1  0  0  0
  4  5  1  0  0  0
  5  6  1  0  0  0
  6  7  1  0  0  0
  7  8  1  0  0  0
  8  9  1  0  0  0
  9 10  1  0  0  0
 10 11  2  0  0  0
 11 12  1  0  0  0
 12 13  1  0  0  0
 13 14  1  0  0  0
 14 15  1  0  0  0
 15 16  1  0  0  0
 16 17  1  0  0  0
 17 18  1  0  0  0
 18 19  1  0  0  0
M  CHG 1  28  -1
M  END
> <minimizedAffinity>
-8.02640

> <CNNscore>
0.7361437082

> <CNNaffinity>
6.5527353287

> <CNN_VS>
4.8237547874

> <CNNaffinity_variance>
0.4406932890

$$$$
/media/chris/experiments/cd1a-new-docking/inputs/ligands/4x6c_ligand.pdb


 37 36  0  0  0  0  0  0  0  0999 V2000
  -40.9854   60.4147   66.5345 O   0  0  0  0  0  0  0  0  0  0  0  0
  -41.0501   60.1447   65.3744 C   0  0  0  0  0  0  0  0  0  0  0  0
  -42.2960   59.7091   64.6750 C   0  0  0  0  0  0  0  0  0  0  0  0
  -43.0785   58.6694   65.4549 C   0  0  0  0  0  0  0  0  0  0  0  0
  -44.3280   58.2101   64.7350 C   0  0  0  0  0  0  0  0  0  0  0  0
  -45.4069   57.6636   65.6400 C   0  0  0  0  0  0  0  0  0  0  0  0
  -46.3258   58.7189   66.2005 C   0  0  0  0  0  0  0  0  0  0  0  0
  -46.8793   59.6240   65.1330 C   0  0  0  0  0  0  0  0  0  0  0  0
  -48.3442   59.4670   64.8514 C   0  0  0  0  0  0  0  0  0  0  0  0
  -48.6558   58.2948   64.0208 C   0  0  0  0  0  0  0  0  0  0  0  0
  -49.2297   58.2712   62.8382 C   0  0  0  0  0  0  0  0  0  0  0  0
  -49.6920   59.4233   62.0238 C   0  0  0  0  0  0  0  0  0  0  0  0
  -49.7519   59.1845   60.5289 C   0  0  0  0  0  0  0  0  0  0  0  0
  -50.2066   57.7939   60.1801 C   0  0  0  0  0  0  0  0  0  0  0  0
  -49.3925   57.1158   59.1080 C   0  0  0  0  0  0  0  0  0  0  0  0
  -48.1284   56.4851   59.6491 C   0  0  0  0  0  0  0  0  0  0  0  0
  -47.1134   56.1063   58.6070 C   0  0  0  0  0  0  0  0  0  0  0  0
  -47.0650   57.0496   57.4726 C   0  0  0  0  0  0  0  0  0  0  0  0
  -47.3700   56.4264   56.1863 C   0  0  0  0  0  0  0  0  0  0  0  0
  -40.0087   60.1888   64.5434 O   0  0  0  0  0  0  0  0  0  0  0  0
  -40.2774   60.4631   63.1504 C   0  0  0  0  0  0  0  0  0  0  0  0
  -38.9407   60.6423   62.4680 C   0  0  0  0  0  0  0  0  0  0  0  0
  -38.0318   61.2843   63.3623 O   0  0  0  0  0  0  0  0  0  0  0  0
  -37.8766   60.7130   64.1307 H   0  0  0  0  0  0  0  0  0  0  0  0
  -38.3005   59.3682   61.9726 C   0  0  0  0  0  0  0  0  0  0  0  0
  -37.5324   58.7923   63.0484 O   0  0  0  0  0  0  0  0  0  0  0  0
  -36.5646   57.5650   62.7543 P   0  0  0  0  0  0  0  0  0  0  0  0
  -36.1134   57.0466   64.0616 O   0  0  0  0  0  0  0  0  0  0  0  0
  -37.2847   56.6642   61.8329 O   0  0  0  0  0  0  0  0  0  0  0  0
  -38.0713   56.3098   62.2762 H   0  0  0  0  0  0  0  0  0  0  0  0
  -35.2935   58.1115   61.9781 O   0  0  0  0  0  0  0  0  0  0  0  0
  -34.0051   57.4847   62.1805 C   0  0  0  0  0  0  0  0  0  0  0  0
  -32.9812   58.5879   62.0390 C   0  0  0  0  0  0  0  0  0  0  0  0
  -32.4287   59.1579   63.3304 N   0  0  0  0  0  0  0  0  0  0  0  0
  -32.5144   58.1599   64.4402 C   0  0  0  0  0  0  0  0  0  0  0  0
  -33.2122   60.3710   63.7173 C   0  0  0  0  0  0  0  0  0  0  0  0
  -30.9941   59.5372   63.1377 C   0  0  0  0  0  0  0  0  0  0  0  0
 34 33  1  0  0  0
 34 35  1  0  0  0
 34 36  1  0  0  0
 34 37  1  0  0  0
 22 23  1  0  0  0
 22 25  1  0  0  0
 22 21  1  0  0  0
 23 24  1  0  0  0
 27 26  1  0  0  0
 27 28  2  0  0  0
 27 31  1  0  0  0
 27 29  1  0  0  0
 25 26  1  0  0  0
 32 33  1  0  0  0
 32 31  1  0  0  0
 29 30  1  0  0  0
 20 21  1  0  0  0
 20  2  1  0  0  0
  1  2  2  0  0  0
  2  3  1  0  0  0
  3  4  1  0  0  0
  4  5  1  0  0  0
  5  6  1  0  0  0
  6  7  1  0  0  0
  7  8  1  0  0  0
  8  9  1  0  0  0
  9 10  1  0  0  0
 10 11  2  0  0  0
 11 12  1  0  0  0
 12 13  1  0  0  0
 13 14  1  0  0  0
 14 15  1  0  0  0
 15 16  1  0  0  0
 16 17  1  0  0  0
 17 18  1  0  0  0
 18 19  1  0  0  0
M  CHG 1  28  -1
M  END
> <minimizedAffinity>
-7.40310

> <CNNscore>
0.7115448713

> <CNNaffinity>
6.6202344894

> <CNN_VS>
4.7105937004

> <CNNaffinity_variance>
0.8252032995

$$$$
/media/chris/experiments/cd1a-new-docking/inputs/ligands/4x6c_ligand.pdb


 37 36  0  0  0  0  0  0  0  0999 V2000
  -42.9634   60.1922   67.6349 O   0  0  0  0  0  0  0  0  0  0  0  0
  -42.4947   60.0804   66.5436 C   0  0  0  0  0  0  0  0  0  0  0  0
  -42.9471   59.0849   65.5261 C   0  0  0  0  0  0  0  0  0  0  0  0
  -44.3318   59.3832   64.9827 C   0  0  0  0  0  0  0  0  0  0  0  0
  -45.3935   58.4566   65.5345 C   0  0  0  0  0  0  0  0  0  0  0  0
  -46.4194   59.1328   66.4132 C   0  0  0  0  0  0  0  0  0  0  0  0
  -47.1826   60.2347   65.7236 C   0  0  0  0  0  0  0  0  0  0  0  0
  -47.9924   59.7305   64.5594 C   0  0  0  0  0  0  0  0  0  0  0  0
  -48.9490   60.7203   63.9635 C   0  0  0  0  0  0  0  0  0  0  0  0
  -50.3599   60.3513   64.1483 C   0  0  0  0  0  0  0  0  0  0  0  0
  -51.1594   59.7569   63.2903 C   0  0  0  0  0  0  0  0  0  0  0  0
  -50.8393   59.2831   61.9202 C   0  0  0  0  0  0  0  0  0  0  0  0
  -50.4076   57.8348   61.8139 C   0  0  0  0  0  0  0  0  0  0  0  0
  -50.8610   57.1852   60.5354 C   0  0  0  0  0  0  0  0  0  0  0  0
  -49.8101   57.1167   59.4571 C   0  0  0  0  0  0  0  0  0  0  0  0
  -48.8037   56.0126   59.6950 C   0  0  0  0  0  0  0  0  0  0  0  0
  -47.4470   56.2518   59.0935 C   0  0  0  0  0  0  0  0  0  0  0  0
  -47.4993   56.5923   57.6581 C   0  0  0  0  0  0  0  0  0  0  0  0
  -47.5792   55.4217   56.7865 C   0  0  0  0  0  0  0  0  0  0  0  0
  -41.4916   60.8302   66.0869 O   0  0  0  0  0  0  0  0  0  0  0  0
  -40.2528   60.1613   65.7615 C   0  0  0  0  0  0  0  0  0  0  0  0
  -39.2376   61.2363   65.4477 C   0  0  0  0  0  0  0  0  0  0  0  0
  -39.7243   62.4985   65.9040 O   0  0  0  0  0  0  0  0  0  0  0  0
  -39.8183   62.4789   66.8693 H   0  0  0  0  0  0  0  0  0  0  0  0
  -37.8670   61.0128   66.0394 C   0  0  0  0  0  0  0  0  0  0  0  0
  -37.0353   62.1436   65.7104 O   0  0  0  0  0  0  0  0  0  0  0  0
  -35.6695   62.3695   66.4933 P   0  0  0  0  0  0  0  0  0  0  0  0
  -35.1804   63.7152   66.1313 O   0  0  0  0  0  0  0  0  0  0  0  0
  -35.9333   62.0575   67.9118 O   0  0  0  0  0  0  0  0  0  0  0  0
  -36.5764   62.6903   68.2678 H   0  0  0  0  0  0  0  0  0  0  0  0
  -34.6155   61.3066   65.9674 O   0  0  0  0  0  0  0  0  0  0  0  0
  -34.7302   60.7883   64.6213 C   0  0  0  0  0  0  0  0  0  0  0  0
  -34.5869   59.2881   64.7417 C   0  0  0  0  0  0  0  0  0  0  0  0
  -35.6128   58.4560   63.9981 N   0  0  0  0  0  0  0  0  0  0  0  0
  -36.4787   59.3145   63.1333 C   0  0  0  0  0  0  0  0  0  0  0  0
  -36.4814   57.7377   64.9805 C   0  0  0  0  0  0  0  0  0  0  0  0
  -34.9142   57.4551   63.1324 C   0  0  0  0  0  0  0  0  0  0  0  0
 34 33  1  0  0  0
 34 35  1  0  0  0
 34 36  1  0  0  0
 34 37  1  0  0  0
 22 23  1  0  0  0
 22 25  1  0  0  0
 22 21  1  0  0  0
 23 24  1  0  0  0
 27 26  1  0  0  0
 27 28  2  0  0  0
 27 31  1  0  0  0
 27 29  1  0  0  0
 25 26  1  0  0  0
 32 33  1  0  0  0
 32 31  1  0  0  0
 29 30  1  0  0  0
 20 21  1  0  0  0
 20  2  1  0  0  0
  1  2  2  0  0  0
  2  3  1  0  0  0
  3  4  1  0  0  0
  4  5  1  0  0  0
  5  6  1  0  0  0
  6  7  1  0  0  0
  7  8  1  0  0  0
  8  9  1  0  0  0
  9 10  1  0  0  0
 10 11  2  0  0  0
 11 12  1  0  0  0
 12 13  1  0  0  0
 13 14  1  0  0  0
 14 15  1  0  0  0
 15 16  1  0  0  0
 16 17  1  0  0  0
 17 18  1  0  0  0
 18 19  1  0  0  0
M  CHG 1  28  -1
M  END
> <minimizedAffinity>
-8.20563

> <CNNscore>
0.6899290681

> <CNNaffinity>
6.5689530373

> <CNN_VS>
4.5321116447

> <CNNaffinity_variance>
0.2486507893

$$$$
/media/chris/experiments/cd1a-new-docking/inputs/ligands/4x6c_ligand.pdb


 37 36  0  0  0  0  0  0  0  0999 V2000
  -41.7814   60.6860   62.4516 O   0  0  0  0  0  0  0  0  0  0  0  0
  -41.1754   60.8559   63.4650 C   0  0  0  0  0  0  0  0  0  0  0  0
  -41.6936   60.5260   64.8265 C   0  0  0  0  0  0  0  0  0  0  0  0
  -41.3735   59.1055   65.2523 C   0  0  0  0  0  0  0  0  0  0  0  0
  -42.4092   58.5240   66.1902 C   0  0  0  0  0  0  0  0  0  0  0  0
  -43.1136   57.2967   65.6617 C   0  0  0  0  0  0  0  0  0  0  0  0
  -44.5080   57.5639   65.1551 C   0  0  0  0  0  0  0  0  0  0  0  0
  -45.1282   58.7773   65.7941 C   0  0  0  0  0  0  0  0  0  0  0  0
  -46.5265   58.5926   66.3046 C   0  0  0  0  0  0  0  0  0  0  0  0
  -47.2624   57.5234   65.6146 C   0  0  0  0  0  0  0  0  0  0  0  0
  -48.4746   57.5728   65.1079 C   0  0  0  0  0  0  0  0  0  0  0  0
  -49.4070   58.7279   65.0804 C   0  0  0  0  0  0  0  0  0  0  0  0
  -49.9028   59.1348   63.7079 C   0  0  0  0  0  0  0  0  0  0  0  0
  -50.1160   57.9589   62.7946 C   0  0  0  0  0  0  0  0  0  0  0  0
  -49.2522   57.9567   61.5594 C   0  0  0  0  0  0  0  0  0  0  0  0
  -49.6364   56.8669   60.5830 C   0  0  0  0  0  0  0  0  0  0  0  0
  -49.8166   57.3240   59.1623 C   0  0  0  0  0  0  0  0  0  0  0  0
  -48.7080   56.9184   58.2760 C   0  0  0  0  0  0  0  0  0  0  0  0
  -47.9004   55.8278   58.8188 C   0  0  0  0  0  0  0  0  0  0  0  0
  -39.9484   61.3742   63.5174 O   0  0  0  0  0  0  0  0  0  0  0  0
  -38.9918   60.9263   62.5315 C   0  0  0  0  0  0  0  0  0  0  0  0
  -38.1468   59.8581   63.1868 C   0  0  0  0  0  0  0  0  0  0  0  0
  -38.1595   58.6799   62.3807 O   0  0  0  0  0  0  0  0  0  0  0  0
  -37.7491   58.8707   61.5228 H   0  0  0  0  0  0  0  0  0  0  0  0
  -36.7101   60.2459   63.4397 C   0  0  0  0  0  0  0  0  0  0  0  0
  -36.6199   61.6848   63.4597 O   0  0  0  0  0  0  0  0  0  0  0  0
  -36.1298   62.4238   64.7799 P   0  0  0  0  0  0  0  0  0  0  0  0
  -37.2727   62.4427   65.7151 O   0  0  0  0  0  0  0  0  0  0  0  0
  -34.8725   61.7705   65.1937 O   0  0  0  0  0  0  0  0  0  0  0  0
  -35.0508   60.8470   65.4309 H   0  0  0  0  0  0  0  0  0  0  0  0
  -35.7774   63.9247   64.4056 O   0  0  0  0  0  0  0  0  0  0  0  0
  -35.3746   64.2514   63.0547 C   0  0  0  0  0  0  0  0  0  0  0  0
  -34.5999   65.5458   63.1553 C   0  0  0  0  0  0  0  0  0  0  0  0
  -33.1063   65.4161   63.3790 N   0  0  0  0  0  0  0  0  0  0  0  0
  -32.7565   65.6263   64.8172 C   0  0  0  0  0  0  0  0  0  0  0  0
  -32.3870   66.4380   62.5582 C   0  0  0  0  0  0  0  0  0  0  0  0
  -32.6552   64.0487   62.9717 C   0  0  0  0  0  0  0  0  0  0  0  0
 34 33  1  0  0  0
 34 35  1  0  0  0
 34 36  1  0  0  0
 34 37  1  0  0  0
 22 23  1  0  0  0
 22 25  1  0  0  0
 22 21  1  0  0  0
 23 24  1  0  0  0
 27 26  1  0  0  0
 27 28  2  0  0  0
 27 31  1  0  0  0
 27 29  1  0  0  0
 25 26  1  0  0  0
 32 33  1  0  0  0
 32 31  1  0  0  0
 29 30  1  0  0  0
 20 21  1  0  0  0
 20  2  1  0  0  0
  1  2  2  0  0  0
  2  3  1  0  0  0
  3  4  1  0  0  0
  4  5  1  0  0  0
  5  6  1  0  0  0
  6  7  1  0  0  0
  7  8  1  0  0  0
  8  9  1  0  0  0
  9 10  1  0  0  0
 10 11  2  0  0  0
 11 12  1  0  0  0
 12 13  1  0  0  0
 13 14  1  0  0  0
 14 15  1  0  0  0
 15 16  1  0  0  0
 16 17  1  0  0  0
 17 18  1  0  0  0
 18 19  1  0  0  0
M  CHG 1  28  -1
M  END
> <minimizedAffinity>
-7.47220

> <CNNscore>
0.6803587675

> <CNNaffinity>
6.3446249962

> <CNN_VS>
4.3166213036

> <CNNaffinity_variance>
1.0610008240

$$$$
/media/chris/experiments/cd1a-new-docking/inputs/ligands/4x6c_ligand.pdb


 37 36  0  0  0  0  0  0  0  0999 V2000
  -41.3335   61.0874   62.7366 O   0  0  0  0  0  0  0  0  0  0  0  0
  -40.9577   60.9427   63.8595 C   0  0  0  0  0  0  0  0  0  0  0  0
  -41.6947   60.1730   64.9061 C   0  0  0  0  0  0  0  0  0  0  0  0
  -43.0862   59.7594   64.4652 C   0  0  0  0  0  0  0  0  0  0  0  0
  -43.7032   58.7126   65.3673 C   0  0  0  0  0  0  0  0  0  0  0  0
  -44.6006   57.7256   64.6585 C   0  0  0  0  0  0  0  0  0  0  0  0
  -45.9497   57.5515   65.3082 C   0  0  0  0  0  0  0  0  0  0  0  0
  -46.9551   58.5610   64.8230 C   0  0  0  0  0  0  0  0  0  0  0  0
  -48.2889   58.0017   64.4254 C   0  0  0  0  0  0  0  0  0  0  0  0
  -49.3919   58.4596   65.2825 C   0  0  0  0  0  0  0  0  0  0  0  0
  -50.2953   59.3771   65.0167 C   0  0  0  0  0  0  0  0  0  0  0  0
  -50.4507   60.1732   63.7732 C   0  0  0  0  0  0  0  0  0  0  0  0
  -51.2835   59.5282   62.6844 C   0  0  0  0  0  0  0  0  0  0  0  0
  -50.4494   58.7835   61.6784 C   0  0  0  0  0  0  0  0  0  0  0  0
  -51.0595   57.4971   61.1838 C   0  0  0  0  0  0  0  0  0  0  0  0
  -50.1621   56.7639   60.2113 C   0  0  0  0  0  0  0  0  0  0  0  0
  -49.2953   57.6484   59.3592 C   0  0  0  0  0  0  0  0  0  0  0  0
  -48.2570   56.9053   58.6184 C   0  0  0  0  0  0  0  0  0  0  0  0
  -47.9268   55.6147   59.2195 C   0  0  0  0  0  0  0  0  0  0  0  0
  -39.8247   61.4598   64.3349 O   0  0  0  0  0  0  0  0  0  0  0  0
  -39.2625   60.8575   65.5219 C   0  0  0  0  0  0  0  0  0  0  0  0
  -37.7697   60.7612   65.3058 C   0  0  0  0  0  0  0  0  0  0  0  0
  -37.0910   61.4445   66.3596 O   0  0  0  0  0  0  0  0  0  0  0  0
  -37.2780   61.0043   67.2035 H   0  0  0  0  0  0  0  0  0  0  0  0
  -37.2257   59.3556   65.2224 C   0  0  0  0  0  0  0  0  0  0  0  0
  -36.6906   59.1484   63.8997 O   0  0  0  0  0  0  0  0  0  0  0  0
  -36.4991   57.6676   63.3520 P   0  0  0  0  0  0  0  0  0  0  0  0
  -35.9394   56.8657   64.4587 O   0  0  0  0  0  0  0  0  0  0  0  0
  -37.7855   57.2646   62.7506 O   0  0  0  0  0  0  0  0  0  0  0  0
  -38.4676   57.2300   63.4393 H   0  0  0  0  0  0  0  0  0  0  0  0
  -35.4268   57.7067   62.1833 O   0  0  0  0  0  0  0  0  0  0  0  0
  -34.0614   57.3080   62.4490 C   0  0  0  0  0  0  0  0  0  0  0  0
  -33.2141   58.5322   62.1861 C   0  0  0  0  0  0  0  0  0  0  0  0
  -32.5106   59.1300   63.3884 N   0  0  0  0  0  0  0  0  0  0  0  0
  -31.0994   59.4976   63.0595 C   0  0  0  0  0  0  0  0  0  0  0  0
  -32.4975   58.1363   64.5055 C   0  0  0  0  0  0  0  0  0  0  0  0
  -33.2351   60.3620   63.8318 C   0  0  0  0  0  0  0  0  0  0  0  0
 34 33  1  0  0  0
 34 35  1  0  0  0
 34 36  1  0  0  0
 34 37  1  0  0  0
 22 23  1  0  0  0
 22 25  1  0  0  0
 22 21  1  0  0  0
 23 24  1  0  0  0
 27 26  1  0  0  0
 27 28  2  0  0  0
 27 31  1  0  0  0
 27 29  1  0  0  0
 25 26  1  0  0  0
 32 33  1  0  0  0
 32 31  1  0  0  0
 29 30  1  0  0  0
 20 21  1  0  0  0
 20  2  1  0  0  0
  1  2  2  0  0  0
  2  3  1  0  0  0
  3  4  1  0  0  0
  4  5  1  0  0  0
  5  6  1  0  0  0
  6  7  1  0  0  0
  7  8  1  0  0  0
  8  9  1  0  0  0
  9 10  1  0  0  0
 10 11  2  0  0  0
 11 12  1  0  0  0
 12 13  1  0  0  0
 13 14  1  0  0  0
 14 15  1  0  0  0
 15 16  1  0  0  0
 16 17  1  0  0  0
 17 18  1  0  0  0
 18 19  1  0  0  0
M  CHG 1  28  -1
M  END
> <minimizedAffinity>
-7.87545

> <CNNscore>
0.6715813875

> <CNNaffinity>
6.4520292282

> <CNN_VS>
4.3330626488

> <CNNaffinity_variance>
0.2874664366

$$$$
/media/chris/experiments/cd1a-new-docking/inputs/ligands/4x6c_ligand.pdb


 37 36  0  0  0  0  0  0  0  0999 V2000
  -42.4278   60.2195   67.3188 O   0  0  0  0  0  0  0  0  0  0  0  0
  -42.0500   60.4446   66.2100 C   0  0  0  0  0  0  0  0  0  0  0  0
  -42.8205   60.1223   64.9716 C   0  0  0  0  0  0  0  0  0  0  0  0
  -44.2190   59.6111   65.2621 C   0  0  0  0  0  0  0  0  0  0  0  0
  -44.4953   58.2620   64.6345 C   0  0  0  0  0  0  0  0  0  0  0  0
  -45.7768   57.6079   65.0949 C   0  0  0  0  0  0  0  0  0  0  0  0
  -47.0169   58.4030   64.7750 C   0  0  0  0  0  0  0  0  0  0  0  0
  -48.2367   57.8720   65.4790 C   0  0  0  0  0  0  0  0  0  0  0  0
  -49.5388   58.0963   64.7689 C   0  0  0  0  0  0  0  0  0  0  0  0
  -50.1875   59.3655   65.1283 C   0  0  0  0  0  0  0  0  0  0  0  0
  -50.8937   60.1602   64.3548 C   0  0  0  0  0  0  0  0  0  0  0  0
  -51.2391   59.9715   62.9232 C   0  0  0  0  0  0  0  0  0  0  0  0
  -50.1272   60.2693   61.9382 C   0  0  0  0  0  0  0  0  0  0  0  0
  -49.7092   59.0586   61.1497 C   0  0  0  0  0  0  0  0  0  0  0  0
  -50.6192   57.8662   61.2977 C   0  0  0  0  0  0  0  0  0  0  0  0
  -50.3223   56.7792   60.2883 C   0  0  0  0  0  0  0  0  0  0  0  0
  -49.1025   57.0165   59.4423 C   0  0  0  0  0  0  0  0  0  0  0  0
  -48.2335   55.8286   59.3290 C   0  0  0  0  0  0  0  0  0  0  0  0
  -46.9191   56.1232   58.7621 C   0  0  0  0  0  0  0  0  0  0  0  0
  -40.8770   61.0111   65.9267 O   0  0  0  0  0  0  0  0  0  0  0  0
  -39.8402   60.1636   65.3839 C   0  0  0  0  0  0  0  0  0  0  0  0
  -38.6211   61.0324   65.1756 C   0  0  0  0  0  0  0  0  0  0  0  0
  -38.8466   62.3165   65.7573 O   0  0  0  0  0  0  0  0  0  0  0  0
  -38.9592   62.2218   66.7161 H   0  0  0  0  0  0  0  0  0  0  0  0
  -37.3358   60.4749   65.7373 C   0  0  0  0  0  0  0  0  0  0  0  0
  -36.9063   61.3184   66.8249 O   0  0  0  0  0  0  0  0  0  0  0  0
  -35.6413   62.2635   66.6349 P   0  0  0  0  0  0  0  0  0  0  0  0
  -35.4795   63.0274   67.8885 O   0  0  0  0  0  0  0  0  0  0  0  0
  -34.5342   61.4067   66.1666 O   0  0  0  0  0  0  0  0  0  0  0  0
  -34.3103   60.7623   66.8560 H   0  0  0  0  0  0  0  0  0  0  0  0
  -35.9624   63.2928   65.4711 O   0  0  0  0  0  0  0  0  0  0  0  0
  -35.0019   63.4963   64.4082 C   0  0  0  0  0  0  0  0  0  0  0  0
  -33.9786   64.4657   64.9549 C   0  0  0  0  0  0  0  0  0  0  0  0
  -33.0177   65.0637   63.9466 N   0  0  0  0  0  0  0  0  0  0  0  0
  -32.0384   65.9769   64.6113 C   0  0  0  0  0  0  0  0  0  0  0  0
  -33.7839   65.8450   62.9278 C   0  0  0  0  0  0  0  0  0  0  0  0
  -32.2623   63.9678   63.2629 C   0  0  0  0  0  0  0  0  0  0  0  0
 34 33  1  0  0  0
 34 35  1  0  0  0
 34 36  1  0  0  0
 34 37  1  0  0  0
 22 23  1  0  0  0
 22 25  1  0  0  0
 22 21  1  0  0  0
 23 24  1  0  0  0
 27 26  1  0  0  0
 27 28  2  0  0  0
 27 31  1  0  0  0
 27 29  1  0  0  0
 25 26  1  0  0  0
 32 33  1  0  0  0
 32 31  1  0  0  0
 29 30  1  0  0  0
 20 21  1  0  0  0
 20  2  1  0  0  0
  1  2  2  0  0  0
  2  3  1  0  0  0
  3  4  1  0  0  0
  4  5  1  0  0  0
  5  6  1  0  0  0
  6  7  1  0  0  0
  7  8  1  0  0  0
  8  9  1  0  0  0
  9 10  1  0  0  0
 10 11  2  0  0  0
 11 12  1  0  0  0
 12 13  1  0  0  0
 13 14  1  0  0  0
 14 15  1  0  0  0
 15 16  1  0  0  0
 16 17  1  0  0  0
 17 18  1  0  0  0
 18 19  1  0  0  0
M  CHG 1  28  -1
M  END
> <minimizedAffinity>
-8.39390

> <CNNscore>
0.6392408013

> <CNNaffinity>
6.2810182571

> <CNN_VS>
4.0150833130

> <CNNaffinity_variance>
0.4612066746

$$$$
