/media/chris/experiments/cd1a-new-docking/inputs/ligands/4x6c_ligand.pdb


 37 36  0  0  0  0  0  0  0  0999 V2000
  -42.1532   57.8243   65.9244 O   0  0  0  0  0  0  0  0  0  0  0  0
  -42.7871   58.7191   65.4550 C   0  0  0  0  0  0  0  0  0  0  0  0
  -44.1589   58.5747   64.8819 C   0  0  0  0  0  0  0  0  0  0  0  0
  -44.9035   57.3707   65.4275 C   0  0  0  0  0  0  0  0  0  0  0  0
  -46.1066   57.7510   66.2631 C   0  0  0  0  0  0  0  0  0  0  0  0
  -46.3600   59.2373   66.3559 C   0  0  0  0  0  0  0  0  0  0  0  0
  -47.7206   59.6566   65.8605 C   0  0  0  0  0  0  0  0  0  0  0  0
  -47.6503   60.8123   64.8989 C   0  0  0  0  0  0  0  0  0  0  0  0
  -48.6904   60.8150   63.8181 C   0  0  0  0  0  0  0  0  0  0  0  0
  -50.0239   60.4163   64.2916 C   0  0  0  0  0  0  0  0  0  0  0  0
  -50.9696   59.7986   63.6189 C   0  0  0  0  0  0  0  0  0  0  0  0
  -50.9289   59.3225   62.2131 C   0  0  0  0  0  0  0  0  0  0  0  0
  -50.3834   57.9235   62.0129 C   0  0  0  0  0  0  0  0  0  0  0  0
  -50.9253   57.2595   60.7770 C   0  0  0  0  0  0  0  0  0  0  0  0
  -49.9353   57.1265   59.6482 C   0  0  0  0  0  0  0  0  0  0  0  0
  -48.8215   56.1525   59.9633 C   0  0  0  0  0  0  0  0  0  0  0  0
  -47.8825   55.8739   58.8229 C   0  0  0  0  0  0  0  0  0  0  0  0
  -47.7694   56.9996   57.8746 C   0  0  0  0  0  0  0  0  0  0  0  0
  -47.3298   56.5932   56.5413 C   0  0  0  0  0  0  0  0  0  0  0  0
  -42.3485   59.9751   65.3718 O   0  0  0  0  0  0  0  0  0  0  0  0
  -41.0156   60.2502   65.8574 C   0  0  0  0  0  0  0  0  0  0  0  0
  -40.5225   61.4785   65.1275 C   0  0  0  0  0  0  0  0  0  0  0  0
  -40.5735   62.6049   66.0031 O   0  0  0  0  0  0  0  0  0  0  0  0
  -39.9684   62.4632   66.7478 H   0  0  0  0  0  0  0  0  0  0  0  0
  -39.1236   61.3719   64.5704 C   0  0  0  0  0  0  0  0  0  0  0  0
  -38.1960   61.8525   65.5642 O   0  0  0  0  0  0  0  0  0  0  0  0
  -36.6335   61.7979   65.2732 P   0  0  0  0  0  0  0  0  0  0  0  0
  -36.2178   63.1605   64.8841 O   0  0  0  0  0  0  0  0  0  0  0  0
  -36.0025   61.1606   66.4457 O   0  0  0  0  0  0  0  0  0  0  0  0
  -36.1297   61.7220   67.2264 H   0  0  0  0  0  0  0  0  0  0  0  0
  -36.3939   60.8387   64.0324 O   0  0  0  0  0  0  0  0  0  0  0  0
  -35.9900   59.4670   64.2537 C   0  0  0  0  0  0  0  0  0  0  0  0
  -35.9886   58.8109   62.8917 C   0  0  0  0  0  0  0  0  0  0  0  0
  -37.3020   58.2034   62.4401 N   0  0  0  0  0  0  0  0  0  0  0  0
  -38.0673   59.1545   61.5774 C   0  0  0  0  0  0  0  0  0  0  0  0
  -38.1346   57.8669   63.6356 C   0  0  0  0  0  0  0  0  0  0  0  0
  -37.0346   56.9563   61.6576 C   0  0  0  0  0  0  0  0  0  0  0  0
 34 33  1  0  0  0
 34 35  1  0  0  0
 34 36  1  0  0  0
 34 37  1  0  0  0
 22 23  1  0  0  0
 22 25  1  0  0  0
 22 21  1  0  0  0
 23 24  1  0  0  0
 27 26  1  0  0  0
 27 28  2  0  0  0
 27 31  1  0  0  0
 27 29  1  0  0  0
 25 26  1  0  0  0
 32 33  1  0  0  0
 32 31  1  0  0  0
 29 30  1  0  0  0
 20 21  1  0  0  0
 20  2  1  0  0  0
  1  2  2  0  0  0
  2  3  1  0  0  0
  3  4  1  0  0  0
  4  5  1  0  0  0
  5  6  1  0  0  0
  6  7  1  0  0  0
  7  8  1  0  0  0
  8  9  1  0  0  0
  9 10  1  0  0  0
 10 11  2  0  0  0
 11 12  1  0  0  0
 12 13  1  0  0  0
 13 14  1  0  0  0
 14 15  1  0  0  0
 15 16  1  0  0  0
 16 17  1  0  0  0
 17 18  1  0  0  0
 18 19  1  0  0  0
M  CHG 1  28  -1
M  END
> <minimizedAffinity>
-8.28264

> <CNNscore>
0.8939571381

> <CNNaffinity>
7.1643180847

> <CNN_VS>
6.4045934677

> <CNNaffinity_variance>
0.6399017572

$$$$
/media/chris/experiments/cd1a-new-docking/inputs/ligands/4x6c_ligand.pdb


 37 36  0  0  0  0  0  0  0  0999 V2000
  -42.0129   57.9428   65.7967 O   0  0  0  0  0  0  0  0  0  0  0  0
  -42.8193   58.7209   65.3876 C   0  0  0  0  0  0  0  0  0  0  0  0
  -44.1786   58.3491   64.8924 C   0  0  0  0  0  0  0  0  0  0  0  0
  -44.7591   57.1441   65.6083 C   0  0  0  0  0  0  0  0  0  0  0  0
  -46.2722   57.1208   65.5907 C   0  0  0  0  0  0  0  0  0  0  0  0
  -46.9070   58.2557   64.8221 C   0  0  0  0  0  0  0  0  0  0  0  0
  -48.2590   57.9213   64.2454 C   0  0  0  0  0  0  0  0  0  0  0  0
  -49.3862   58.2982   65.1689 C   0  0  0  0  0  0  0  0  0  0  0  0
  -49.8768   59.7102   65.0434 C   0  0  0  0  0  0  0  0  0  0  0  0
  -51.0385   59.8465   64.1528 C   0  0  0  0  0  0  0  0  0  0  0  0
  -51.0443   60.1252   62.8680 C   0  0  0  0  0  0  0  0  0  0  0  0
  -49.8784   60.3523   61.9771 C   0  0  0  0  0  0  0  0  0  0  0  0
  -49.6045   59.2565   60.9675 C   0  0  0  0  0  0  0  0  0  0  0  0
  -50.5145   58.0708   61.1353 C   0  0  0  0  0  0  0  0  0  0  0  0
  -50.2841   56.9557   60.1477 C   0  0  0  0  0  0  0  0  0  0  0  0
  -48.9637   56.2500   60.3649 C   0  0  0  0  0  0  0  0  0  0  0  0
  -48.2092   55.9175   59.1080 C   0  0  0  0  0  0  0  0  0  0  0  0
  -48.2454   56.9997   58.1046 C   0  0  0  0  0  0  0  0  0  0  0  0
  -47.0603   57.0385   57.2501 C   0  0  0  0  0  0  0  0  0  0  0  0
  -42.6094   60.0350   65.3102 O   0  0  0  0  0  0  0  0  0  0  0  0
  -41.6739   60.6178   66.2447 C   0  0  0  0  0  0  0  0  0  0  0  0
  -40.5291   61.1801   65.4338 C   0  0  0  0  0  0  0  0  0  0  0  0
  -40.2591   62.5172   65.8550 O   0  0  0  0  0  0  0  0  0  0  0  0
  -39.9675   62.5121   66.7801 H   0  0  0  0  0  0  0  0  0  0  0  0
  -39.2453   60.3897   65.5075 C   0  0  0  0  0  0  0  0  0  0  0  0
  -38.2822   61.1484   66.2662 O   0  0  0  0  0  0  0  0  0  0  0  0
  -36.9945   61.7347   65.5400 P   0  0  0  0  0  0  0  0  0  0  0  0
  -37.4159   62.1632   64.1910 O   0  0  0  0  0  0  0  0  0  0  0  0
  -36.4012   62.7273   66.4575 O   0  0  0  0  0  0  0  0  0  0  0  0
  -37.0207   63.4632   66.5821 H   0  0  0  0  0  0  0  0  0  0  0  0
  -35.9410   60.5600   65.3750 O   0  0  0  0  0  0  0  0  0  0  0  0
  -35.2519   60.3864   64.1145 C   0  0  0  0  0  0  0  0  0  0  0  0
  -35.8190   59.1255   63.5028 C   0  0  0  0  0  0  0  0  0  0  0  0
  -35.0351   57.8515   63.7482 N   0  0  0  0  0  0  0  0  0  0  0  0
  -34.8611   57.0737   62.4835 C   0  0  0  0  0  0  0  0  0  0  0  0
  -35.7634   56.9987   64.7371 C   0  0  0  0  0  0  0  0  0  0  0  0
  -33.6827   58.1917   64.2909 C   0  0  0  0  0  0  0  0  0  0  0  0
 34 33  1  0  0  0
 34 35  1  0  0  0
 34 36  1  0  0  0
 34 37  1  0  0  0
 22 23  1  0  0  0
 22 25  1  0  0  0
 22 21  1  0  0  0
 23 24  1  0  0  0
 27 26  1  0  0  0
 27 28  2  0  0  0
 27 31  1  0  0  0
 27 29  1  0  0  0
 25 26  1  0  0  0
 32 33  1  0  0  0
 32 31  1  0  0  0
 29 30  1  0  0  0
 20 21  1  0  0  0
 20  2  1  0  0  0
  1  2  2  0  0  0
  2  3  1  0  0  0
  3  4  1  0  0  0
  4  5  1  0  0  0
  5  6  1  0  0  0
  6  7  1  0  0  0
  7  8  1  0  0  0
  8  9  1  0  0  0
  9 10  1  0  0  0
 10 11  2  0  0  0
 11 12  1  0  0  0
 12 13  1  0  0  0
 13 14  1  0  0  0
 14 15  1  0  0  0
 15 16  1  0  0  0
 16 17  1  0  0  0
 17 18  1  0  0  0
 18 19  1  0  0  0
M  CHG 1  28  -1
M  END
> <minimizedAffinity>
-8.23913

> <CNNscore>
0.8553669453

> <CNNaffinity>
6.8175840378

> <CNN_VS>
5.8315358162

> <CNNaffinity_variance>
0.2313919961

$$$$
/media/chris/experiments/cd1a-new-docking/inputs/ligands/4x6c_ligand.pdb


 37 36  0  0  0  0  0  0  0  0999 V2000
  -40.5662   58.7249   64.7942 O   0  0  0  0  0  0  0  0  0  0  0  0
  -40.9210   59.8635   64.8202 C   0  0  0  0  0  0  0  0  0  0  0  0
  -42.3462   60.3042   64.8957 C   0  0  0  0  0  0  0  0  0  0  0  0
  -43.1531   59.5229   65.9155 C   0  0  0  0  0  0  0  0  0  0  0  0
  -44.3730   58.8569   65.3166 C   0  0  0  0  0  0  0  0  0  0  0  0
  -45.6582   59.1123   66.0682 C   0  0  0  0  0  0  0  0  0  0  0  0
  -46.8670   59.2556   65.1791 C   0  0  0  0  0  0  0  0  0  0  0  0
  -48.0347   59.8804   65.8943 C   0  0  0  0  0  0  0  0  0  0  0  0
  -49.3564   59.7622   65.1950 C   0  0  0  0  0  0  0  0  0  0  0  0
  -49.4644   60.6175   64.0043 C   0  0  0  0  0  0  0  0  0  0  0  0
  -50.1404   60.3858   62.9007 C   0  0  0  0  0  0  0  0  0  0  0  0
  -50.9891   59.2108   62.5788 C   0  0  0  0  0  0  0  0  0  0  0  0
  -50.2491   57.9896   62.0727 C   0  0  0  0  0  0  0  0  0  0  0  0
  -50.9325   57.3398   60.9011 C   0  0  0  0  0  0  0  0  0  0  0  0
  -50.1119   57.2976   59.6375 C   0  0  0  0  0  0  0  0  0  0  0  0
  -48.7218   56.7456   59.8651 C   0  0  0  0  0  0  0  0  0  0  0  0
  -48.1065   56.0682   58.6725 C   0  0  0  0  0  0  0  0  0  0  0  0
  -47.4547   57.0099   57.7410 C   0  0  0  0  0  0  0  0  0  0  0  0
  -46.8198   56.3521   56.6006 C   0  0  0  0  0  0  0  0  0  0  0  0
  -40.0862   60.9018   64.7771 O   0  0  0  0  0  0  0  0  0  0  0  0
  -39.0191   60.9413   65.7508 C   0  0  0  0  0  0  0  0  0  0  0  0
  -37.7656   61.3610   65.0181 C   0  0  0  0  0  0  0  0  0  0  0  0
  -37.2723   62.5783   65.5776 O   0  0  0  0  0  0  0  0  0  0  0  0
  -37.0169   62.4294   66.5014 H   0  0  0  0  0  0  0  0  0  0  0  0
  -36.6489   60.3454   65.0293 C   0  0  0  0  0  0  0  0  0  0  0  0
  -36.5099   59.8016   63.7012 O   0  0  0  0  0  0  0  0  0  0  0  0
  -37.1887   58.4076   63.3471 P   0  0  0  0  0  0  0  0  0  0  0  0
  -37.2403   57.6216   64.5964 O   0  0  0  0  0  0  0  0  0  0  0  0
  -38.4462   58.7128   62.6367 O   0  0  0  0  0  0  0  0  0  0  0  0
  -39.0492   59.1823   63.2340 H   0  0  0  0  0  0  0  0  0  0  0  0
  -36.2463   57.6432   62.3251 O   0  0  0  0  0  0  0  0  0  0  0  0
  -34.9918   57.0873   62.7844 C   0  0  0  0  0  0  0  0  0  0  0  0
  -33.9220   58.0617   62.3465 C   0  0  0  0  0  0  0  0  0  0  0  0
  -32.9458   58.5092   63.4163 N   0  0  0  0  0  0  0  0  0  0  0  0
  -32.7126   59.9843   63.3502 C   0  0  0  0  0  0  0  0  0  0  0  0
  -31.6383   57.8097   63.2243 C   0  0  0  0  0  0  0  0  0  0  0  0
  -33.4930   58.1711   64.7674 C   0  0  0  0  0  0  0  0  0  0  0  0
 34 33  1  0  0  0
 34 35  1  0  0  0
 34 36  1  0  0  0
 34 37  1  0  0  0
 22 23  1  0  0  0
 22 25  1  0  0  0
 22 21  1  0  0  0
 23 24  1  0  0  0
 27 26  1  0  0  0
 27 28  2  0  0  0
 27 31  1  0  0  0
 27 29  1  0  0  0
 25 26  1  0  0  0
 32 33  1  0  0  0
 32 31  1  0  0  0
 29 30  1  0  0  0
 20 21  1  0  0  0
 20  2  1  0  0  0
  1  2  2  0  0  0
  2  3  1  0  0  0
  3  4  1  0  0  0
  4  5  1  0  0  0
  5  6  1  0  0  0
  6  7  1  0  0  0
  7  8  1  0  0  0
  8  9  1  0  0  0
  9 10  1  0  0  0
 10 11  2  0  0  0
 11 12  1  0  0  0
 12 13  1  0  0  0
 13 14  1  0  0  0
 14 15  1  0  0  0
 15 16  1  0  0  0
 16 17  1  0  0  0
 17 18  1  0  0  0
 18 19  1  0  0  0
M  CHG 1  28  -1
M  END
> <minimizedAffinity>
-7.71553

> <CNNscore>
0.8448938131

> <CNNaffinity>
6.6029357910

> <CNN_VS>
5.5787796974

> <CNNaffinity_variance>
1.0496704578

$$$$
/media/chris/experiments/cd1a-new-docking/inputs/ligands/4x6c_ligand.pdb


 37 36  0  0  0  0  0  0  0  0999 V2000
  -42.4540   57.3755   66.2414 O   0  0  0  0  0  0  0  0  0  0  0  0
  -42.5455   58.3462   65.5543 C   0  0  0  0  0  0  0  0  0  0  0  0
  -43.8062   58.7999   64.8940 C   0  0  0  0  0  0  0  0  0  0  0  0
  -44.7396   57.6539   64.5523 C   0  0  0  0  0  0  0  0  0  0  0  0
  -45.8852   57.5151   65.5315 C   0  0  0  0  0  0  0  0  0  0  0  0
  -46.4523   58.8266   66.0216 C   0  0  0  0  0  0  0  0  0  0  0  0
  -47.6628   59.2931   65.2539 C   0  0  0  0  0  0  0  0  0  0  0  0
  -48.4141   58.1538   64.6191 C   0  0  0  0  0  0  0  0  0  0  0  0
  -49.8746   58.0799   64.9533 C   0  0  0  0  0  0  0  0  0  0  0  0
  -50.4842   59.3954   65.1960 C   0  0  0  0  0  0  0  0  0  0  0  0
  -51.0837   60.1813   64.3290 C   0  0  0  0  0  0  0  0  0  0  0  0
  -51.3213   59.9347   62.8842 C   0  0  0  0  0  0  0  0  0  0  0  0
  -50.1900   60.3335   61.9590 C   0  0  0  0  0  0  0  0  0  0  0  0
  -49.6979   59.1895   61.1156 C   0  0  0  0  0  0  0  0  0  0  0  0
  -50.4438   57.8948   61.3139 C   0  0  0  0  0  0  0  0  0  0  0  0
  -50.2544   56.9323   60.1623 C   0  0  0  0  0  0  0  0  0  0  0  0
  -48.8331   56.7693   59.7005 C   0  0  0  0  0  0  0  0  0  0  0  0
  -48.6749   56.9226   58.2408 C   0  0  0  0  0  0  0  0  0  0  0  0
  -47.2811   57.0437   57.8178 C   0  0  0  0  0  0  0  0  0  0  0  0
  -41.5246   59.1570   65.2760 O   0  0  0  0  0  0  0  0  0  0  0  0
  -41.2755   60.2528   66.1844 C   0  0  0  0  0  0  0  0  0  0  0  0
  -40.2663   61.1599   65.5188 C   0  0  0  0  0  0  0  0  0  0  0  0
  -40.4757   62.5039   65.9522 O   0  0  0  0  0  0  0  0  0  0  0  0
  -40.3158   62.5644   66.9070 H   0  0  0  0  0  0  0  0  0  0  0  0
  -38.8217   60.7995   65.7676 C   0  0  0  0  0  0  0  0  0  0  0  0
  -38.0484   62.0151   65.8227 O   0  0  0  0  0  0  0  0  0  0  0  0
  -36.5003   61.9796   65.4599 P   0  0  0  0  0  0  0  0  0  0  0  0
  -36.3366   62.7137   64.1890 O   0  0  0  0  0  0  0  0  0  0  0  0
  -35.7702   62.4418   66.6568 O   0  0  0  0  0  0  0  0  0  0  0  0
  -36.0012   63.3660   66.8396 H   0  0  0  0  0  0  0  0  0  0  0  0
  -36.0845   60.4690   65.2111 O   0  0  0  0  0  0  0  0  0  0  0  0
  -35.6311   60.0564   63.9004 C   0  0  0  0  0  0  0  0  0  0  0  0
  -36.1026   58.6302   63.7292 C   0  0  0  0  0  0  0  0  0  0  0  0
  -37.3386   58.4319   62.8744 N   0  0  0  0  0  0  0  0  0  0  0  0
  -38.4750   57.8982   63.6858 C   0  0  0  0  0  0  0  0  0  0  0  0
  -37.0377   57.4615   61.7774 C   0  0  0  0  0  0  0  0  0  0  0  0
  -37.7502   59.7407   62.2770 C   0  0  0  0  0  0  0  0  0  0  0  0
 34 33  1  0  0  0
 34 35  1  0  0  0
 34 36  1  0  0  0
 34 37  1  0  0  0
 22 23  1  0  0  0
 22 25  1  0  0  0
 22 21  1  0  0  0
 23 24  1  0  0  0
 27 26  1  0  0  0
 27 28  2  0  0  0
 27 31  1  0  0  0
 27 29  1  0  0  0
 25 26  1  0  0  0
 32 33  1  0  0  0
 32 31  1  0  0  0
 29 30  1  0  0  0
 20 21  1  0  0  0
 20  2  1  0  0  0
  1  2  2  0  0  0
  2  3  1  0  0  0
  3  4  1  0  0  0
  4  5  1  0  0  0
  5  6  1  0  0  0
  6  7  1  0  0  0
  7  8  1  0  0  0
  8  9  1  0  0  0
  9 10  1  0  0  0
 10 11  2  0  0  0
 11 12  1  0  0  0
 12 13  1  0  0  0
 13 14  1  0  0  0
 14 15  1  0  0  0
 15 16  1  0  0  0
 16 17  1  0  0  0
 17 18  1  0  0  0
 18 19  1  0  0  0
M  CHG 1  28  -1
M  END
> <minimizedAffinity>
-8.25736

> <CNNscore>
0.8075986505

> <CNNaffinity>
6.9224700928

> <CNN_VS>
5.5905776024

> <CNNaffinity_variance>
0.3257130086

$$$$
/media/chris/experiments/cd1a-new-docking/inputs/ligands/4x6c_ligand.pdb


 37 36  0  0  0  0  0  0  0  0999 V2000
  -41.8016   58.0307   65.6355 O   0  0  0  0  0  0  0  0  0  0  0  0
  -42.7578   58.7180   65.4452 C   0  0  0  0  0  0  0  0  0  0  0  0
  -44.0582   58.2264   64.8990 C   0  0  0  0  0  0  0  0  0  0  0  0
  -44.7075   57.1734   65.7771 C   0  0  0  0  0  0  0  0  0  0  0  0
  -46.0577   57.6016   66.3102 C   0  0  0  0  0  0  0  0  0  0  0  0
  -46.4941   58.9806   65.8747 C   0  0  0  0  0  0  0  0  0  0  0  0
  -47.6974   58.9816   64.9668 C   0  0  0  0  0  0  0  0  0  0  0  0
  -48.5647   57.7671   65.1619 C   0  0  0  0  0  0  0  0  0  0  0  0
  -50.0415   58.0057   65.0508 C   0  0  0  0  0  0  0  0  0  0  0  0
  -50.4221   59.4103   65.2589 C   0  0  0  0  0  0  0  0  0  0  0  0
  -50.9498   60.2427   64.3886 C   0  0  0  0  0  0  0  0  0  0  0  0
  -51.3196   59.9743   62.9759 C   0  0  0  0  0  0  0  0  0  0  0  0
  -50.2431   60.2692   61.9516 C   0  0  0  0  0  0  0  0  0  0  0  0
  -49.6642   59.0225   61.3412 C   0  0  0  0  0  0  0  0  0  0  0  0
  -50.5635   57.8145   61.4042 C   0  0  0  0  0  0  0  0  0  0  0  0
  -50.2507   56.7997   60.3267 C   0  0  0  0  0  0  0  0  0  0  0  0
  -49.8693   57.3862   58.9961 C   0  0  0  0  0  0  0  0  0  0  0  0
  -48.5892   56.8658   58.4767 C   0  0  0  0  0  0  0  0  0  0  0  0
  -48.0248   55.7931   59.2933 C   0  0  0  0  0  0  0  0  0  0  0  0
  -42.7901   60.0281   65.6893 O   0  0  0  0  0  0  0  0  0  0  0  0
  -41.7106   60.5886   66.4695 C   0  0  0  0  0  0  0  0  0  0  0  0
  -40.8484   61.3905   65.5219 C   0  0  0  0  0  0  0  0  0  0  0  0
  -40.5850   62.6740   66.0886 O   0  0  0  0  0  0  0  0  0  0  0  0
  -40.0739   62.5678   66.9061 H   0  0  0  0  0  0  0  0  0  0  0  0
  -39.5300   60.7502   65.1608 C   0  0  0  0  0  0  0  0  0  0  0  0
  -38.7403   61.7080   64.4274 O   0  0  0  0  0  0  0  0  0  0  0  0
  -37.1585   61.7144   64.5927 P   0  0  0  0  0  0  0  0  0  0  0  0
  -36.7340   60.3086   64.7488 O   0  0  0  0  0  0  0  0  0  0  0  0
  -36.6152   62.5099   63.4742 O   0  0  0  0  0  0  0  0  0  0  0  0
  -36.8145   62.0661   62.6350 H   0  0  0  0  0  0  0  0  0  0  0  0
  -36.8037   62.4859   65.9327 O   0  0  0  0  0  0  0  0  0  0  0  0
  -35.4343   62.5212   66.3989 C   0  0  0  0  0  0  0  0  0  0  0  0
  -34.9677   63.9461   66.2052 C   0  0  0  0  0  0  0  0  0  0  0  0
  -33.7133   64.1326   65.3748 N   0  0  0  0  0  0  0  0  0  0  0  0
  -33.3495   62.8725   64.6576 C   0  0  0  0  0  0  0  0  0  0  0  0
  -32.5768   64.5204   66.2656 C   0  0  0  0  0  0  0  0  0  0  0  0
  -33.9379   65.2117   64.3627 C   0  0  0  0  0  0  0  0  0  0  0  0
 34 33  1  0  0  0
 34 35  1  0  0  0
 34 36  1  0  0  0
 34 37  1  0  0  0
 22 23  1  0  0  0
 22 25  1  0  0  0
 22 21  1  0  0  0
 23 24  1  0  0  0
 27 26  1  0  0  0
 27 28  2  0  0  0
 27 31  1  0  0  0
 27 29  1  0  0  0
 25 26  1  0  0  0
 32 33  1  0  0  0
 32 31  1  0  0  0
 29 30  1  0  0  0
 20 21  1  0  0  0
 20  2  1  0  0  0
  1  2  2  0  0  0
  2  3  1  0  0  0
  3  4  1  0  0  0
  4  5  1  0  0  0
  5  6  1  0  0  0
  6  7  1  0  0  0
  7  8  1  0  0  0
  8  9  1  0  0  0
  9 10  1  0  0  0
 10 11  2  0  0  0
 11 12  1  0  0  0
 12 13  1  0  0  0
 13 14  1  0  0  0
 14 15  1  0  0  0
 15 16  1  0  0  0
 16 17  1  0  0  0
 17 18  1  0  0  0
 18 19  1  0  0  0
M  CHG 1  28  -1
M  END
> <minimizedAffinity>
-8.15387

> <CNNscore>
0.7910736799

> <CNNaffinity>
6.4458532333

> <CNN_VS>
5.0991449356

> <CNNaffinity_variance>
0.2413518727

$$$$
/media/chris/experiments/cd1a-new-docking/inputs/ligands/4x6c_ligand.pdb


 37 36  0  0  0  0  0  0  0  0999 V2000
  -39.2949   61.6262   65.9301 O   0  0  0  0  0  0  0  0  0  0  0  0
  -40.1960   61.4041   65.1808 C   0  0  0  0  0  0  0  0  0  0  0  0
  -41.5300   60.8747   65.5947 C   0  0  0  0  0  0  0  0  0  0  0  0
  -42.4133   60.5119   64.4159 C   0  0  0  0  0  0  0  0  0  0  0  0
  -43.1331   59.1938   64.6027 C   0  0  0  0  0  0  0  0  0  0  0  0
  -44.0173   59.1309   65.8259 C   0  0  0  0  0  0  0  0  0  0  0  0
  -45.0477   58.0317   65.7783 C   0  0  0  0  0  0  0  0  0  0  0  0
  -45.8963   58.0938   64.5368 C   0  0  0  0  0  0  0  0  0  0  0  0
  -47.1734   58.8696   64.6678 C   0  0  0  0  0  0  0  0  0  0  0  0
  -48.3684   58.0166   64.7434 C   0  0  0  0  0  0  0  0  0  0  0  0
  -49.2970   57.8427   63.8291 C   0  0  0  0  0  0  0  0  0  0  0  0
  -49.3688   58.4446   62.4737 C   0  0  0  0  0  0  0  0  0  0  0  0
  -50.5894   58.0720   61.6574 C   0  0  0  0  0  0  0  0  0  0  0  0
  -50.2519   57.7184   60.2350 C   0  0  0  0  0  0  0  0  0  0  0  0
  -49.4500   56.4523   60.0743 C   0  0  0  0  0  0  0  0  0  0  0  0
  -48.0602   56.7087   59.5346 C   0  0  0  0  0  0  0  0  0  0  0  0
  -47.3553   55.4942   58.9981 C   0  0  0  0  0  0  0  0  0  0  0  0
  -47.2738   55.4729   57.5243 C   0  0  0  0  0  0  0  0  0  0  0  0
  -47.1270   56.8010   56.9320 C   0  0  0  0  0  0  0  0  0  0  0  0
  -40.1286   61.5931   63.8630 O   0  0  0  0  0  0  0  0  0  0  0  0
  -38.9039   61.2143   63.1960 C   0  0  0  0  0  0  0  0  0  0  0  0
  -39.2832   60.2822   62.0683 C   0  0  0  0  0  0  0  0  0  0  0  0
  -39.8936   61.0307   61.0170 O   0  0  0  0  0  0  0  0  0  0  0  0
  -39.2514   61.6597   60.6528 H   0  0  0  0  0  0  0  0  0  0  0  0
  -38.1402   59.4874   61.4847 C   0  0  0  0  0  0  0  0  0  0  0  0
  -37.1082   59.3660   62.4843 O   0  0  0  0  0  0  0  0  0  0  0  0
  -36.5151   57.9319   62.8322 P   0  0  0  0  0  0  0  0  0  0  0  0
  -36.0152   57.9955   64.2204 O   0  0  0  0  0  0  0  0  0  0  0  0
  -37.5560   56.9438   62.4871 O   0  0  0  0  0  0  0  0  0  0  0  0
  -38.3312   57.0792   63.0542 H   0  0  0  0  0  0  0  0  0  0  0  0
  -35.2775   57.6627   61.8769 O   0  0  0  0  0  0  0  0  0  0  0  0
  -33.9885   57.3363   62.4476 C   0  0  0  0  0  0  0  0  0  0  0  0
  -33.0865   58.5072   62.1295 C   0  0  0  0  0  0  0  0  0  0  0  0
  -32.3970   59.1611   63.3105 N   0  0  0  0  0  0  0  0  0  0  0  0
  -31.0039   59.5745   62.9601 C   0  0  0  0  0  0  0  0  0  0  0  0
  -32.3365   58.1964   64.4512 C   0  0  0  0  0  0  0  0  0  0  0  0
  -33.1652   60.3747   63.7304 C   0  0  0  0  0  0  0  0  0  0  0  0
 34 33  1  0  0  0
 34 35  1  0  0  0
 34 36  1  0  0  0
 34 37  1  0  0  0
 22 23  1  0  0  0
 22 25  1  0  0  0
 22 21  1  0  0  0
 23 24  1  0  0  0
 27 26  1  0  0  0
 27 28  2  0  0  0
 27 31  1  0  0  0
 27 29  1  0  0  0
 25 26  1  0  0  0
 32 33  1  0  0  0
 32 31  1  0  0  0
 29 30  1  0  0  0
 20 21  1  0  0  0
 20  2  1  0  0  0
  1  2  2  0  0  0
  2  3  1  0  0  0
  3  4  1  0  0  0
  4  5  1  0  0  0
  5  6  1  0  0  0
  6  7  1  0  0  0
  7  8  1  0  0  0
  8  9  1  0  0  0
  9 10  1  0  0  0
 10 11  2  0  0  0
 11 12  1  0  0  0
 12 13  1  0  0  0
 13 14  1  0  0  0
 14 15  1  0  0  0
 15 16  1  0  0  0
 16 17  1  0  0  0
 17 18  1  0  0  0
 18 19  1  0  0  0
M  CHG 1  28  -1
M  END
> <minimizedAffinity>
-7.64338

> <CNNscore>
0.7735727429

> <CNNaffinity>
6.7600631714

> <CNN_VS>
5.2294006348

> <CNNaffinity_variance>
0.6704747677

$$$$
/media/chris/experiments/cd1a-new-docking/inputs/ligands/4x6c_ligand.pdb


 37 36  0  0  0  0  0  0  0  0999 V2000
  -42.0268   57.8962   66.0634 O   0  0  0  0  0  0  0  0  0  0  0  0
  -42.6864   58.7454   65.5471 C   0  0  0  0  0  0  0  0  0  0  0  0
  -44.0088   58.5096   64.8937 C   0  0  0  0  0  0  0  0  0  0  0  0
  -44.7137   57.2721   65.4162 C   0  0  0  0  0  0  0  0  0  0  0  0
  -46.0302   57.5858   66.0937 C   0  0  0  0  0  0  0  0  0  0  0  0
  -46.4786   59.0218   65.9562 C   0  0  0  0  0  0  0  0  0  0  0  0
  -47.6724   59.2048   65.0542 C   0  0  0  0  0  0  0  0  0  0  0  0
  -48.4389   57.9257   64.8500 C   0  0  0  0  0  0  0  0  0  0  0  0
  -49.9236   58.0277   65.0378 C   0  0  0  0  0  0  0  0  0  0  0  0
  -50.3854   59.3990   65.2974 C   0  0  0  0  0  0  0  0  0  0  0  0
  -50.9113   60.2503   64.4445 C   0  0  0  0  0  0  0  0  0  0  0  0
  -51.1967   60.0406   63.0026 C   0  0  0  0  0  0  0  0  0  0  0  0
  -50.0364   60.2974   62.0630 C   0  0  0  0  0  0  0  0  0  0  0  0
  -49.8214   59.1757   61.0845 C   0  0  0  0  0  0  0  0  0  0  0  0
  -50.4699   57.8708   61.4702 C   0  0  0  0  0  0  0  0  0  0  0  0
  -50.5670   56.9045   60.3102 C   0  0  0  0  0  0  0  0  0  0  0  0
  -49.4214   56.9643   59.3387 C   0  0  0  0  0  0  0  0  0  0  0  0
  -48.4840   55.8321   59.4748 C   0  0  0  0  0  0  0  0  0  0  0  0
  -47.1338   56.1371   59.0055 C   0  0  0  0  0  0  0  0  0  0  0  0
  -42.3240   60.0263   65.4772 O   0  0  0  0  0  0  0  0  0  0  0  0
  -40.9786   60.3626   65.8833 C   0  0  0  0  0  0  0  0  0  0  0  0
  -40.5664   61.5798   65.0877 C   0  0  0  0  0  0  0  0  0  0  0  0
  -39.2371   61.9558   65.4476 O   0  0  0  0  0  0  0  0  0  0  0  0
  -38.6232   61.2451   65.2052 H   0  0  0  0  0  0  0  0  0  0  0  0
  -40.6242   61.4126   63.5886 C   0  0  0  0  0  0  0  0  0  0  0  0
  -39.6378   60.4365   63.1974 O   0  0  0  0  0  0  0  0  0  0  0  0
  -38.9539   60.5398   61.7653 P   0  0  0  0  0  0  0  0  0  0  0  0
  -40.0065   60.9429   60.8110 O   0  0  0  0  0  0  0  0  0  0  0  0
  -37.7601   61.3938   61.9225 O   0  0  0  0  0  0  0  0  0  0  0  0
  -38.0342   62.2893   62.1751 H   0  0  0  0  0  0  0  0  0  0  0  0
  -38.4457   59.0944   61.3536 O   0  0  0  0  0  0  0  0  0  0  0  0
  -37.1451   58.6388   61.7948 C   0  0  0  0  0  0  0  0  0  0  0  0
  -37.3779   57.9364   63.1133 C   0  0  0  0  0  0  0  0  0  0  0  0
  -36.4256   58.2913   64.2379 N   0  0  0  0  0  0  0  0  0  0  0  0
  -37.1264   59.0509   65.3180 C   0  0  0  0  0  0  0  0  0  0  0  0
  -35.3138   59.1364   63.7039 C   0  0  0  0  0  0  0  0  0  0  0  0
  -35.8554   57.0390   64.8260 C   0  0  0  0  0  0  0  0  0  0  0  0
 34 33  1  0  0  0
 34 35  1  0  0  0
 34 36  1  0  0  0
 34 37  1  0  0  0
 22 23  1  0  0  0
 22 25  1  0  0  0
 22 21  1  0  0  0
 23 24  1  0  0  0
 27 26  1  0  0  0
 27 28  2  0  0  0
 27 31  1  0  0  0
 27 29  1  0  0  0
 25 26  1  0  0  0
 32 33  1  0  0  0
 32 31  1  0  0  0
 29 30  1  0  0  0
 20 21  1  0  0  0
 20  2  1  0  0  0
  1  2  2  0  0  0
  2  3  1  0  0  0
  3  4  1  0  0  0
  4  5  1  0  0  0
  5  6  1  0  0  0
  6  7  1  0  0  0
  7  8  1  0  0  0
  8  9  1  0  0  0
  9 10  1  0  0  0
 10 11  2  0  0  0
 11 12  1  0  0  0
 12 13  1  0  0  0
 13 14  1  0  0  0
 14 15  1  0  0  0
 15 16  1  0  0  0
 16 17  1  0  0  0
 17 18  1  0  0  0
 18 19  1  0  0  0
M  CHG 1  28  -1
M  END
> <minimizedAffinity>
-8.37625

> <CNNscore>
0.7516605258

> <CNNaffinity>
6.8984174728

> <CNN_VS>
5.1852679253

> <CNNaffinity_variance>
0.4256032109

$$$$
/media/chris/experiments/cd1a-new-docking/inputs/ligands/4x6c_ligand.pdb


 37 36  0  0  0  0  0  0  0  0999 V2000
  -42.0775   58.0427   65.9878 O   0  0  0  0  0  0  0  0  0  0  0  0
  -42.7515   58.6853   65.2423 C   0  0  0  0  0  0  0  0  0  0  0  0
  -44.1659   58.3614   64.8878 C   0  0  0  0  0  0  0  0  0  0  0  0
  -44.5915   56.9826   65.3561 C   0  0  0  0  0  0  0  0  0  0  0  0
  -46.0135   56.9487   65.8728 C   0  0  0  0  0  0  0  0  0  0  0  0
  -46.7728   58.2434   65.7022 C   0  0  0  0  0  0  0  0  0  0  0  0
  -47.7971   58.2092   64.5969 C   0  0  0  0  0  0  0  0  0  0  0  0
  -49.2076   58.1913   65.1219 C   0  0  0  0  0  0  0  0  0  0  0  0
  -49.8288   59.5382   65.3455 C   0  0  0  0  0  0  0  0  0  0  0  0
  -50.9817   59.8006   64.4718 C   0  0  0  0  0  0  0  0  0  0  0  0
  -50.9731   60.2133   63.2236 C   0  0  0  0  0  0  0  0  0  0  0  0
  -49.7967   60.5000   62.3641 C   0  0  0  0  0  0  0  0  0  0  0  0
  -49.6842   59.6587   61.1093 C   0  0  0  0  0  0  0  0  0  0  0  0
  -50.3753   58.3290   61.2369 C   0  0  0  0  0  0  0  0  0  0  0  0
  -50.0626   57.3486   60.1355 C   0  0  0  0  0  0  0  0  0  0  0  0
  -48.7058   56.7004   60.3018 C   0  0  0  0  0  0  0  0  0  0  0  0
  -48.2381   55.8983   59.1196 C   0  0  0  0  0  0  0  0  0  0  0  0
  -48.3336   56.6340   57.8433 C   0  0  0  0  0  0  0  0  0  0  0  0
  -47.0537   57.1712   57.3860 C   0  0  0  0  0  0  0  0  0  0  0  0
  -42.3256   59.7820   64.6157 O   0  0  0  0  0  0  0  0  0  0  0  0
  -41.9679   60.9203   65.4308 C   0  0  0  0  0  0  0  0  0  0  0  0
  -40.7042   61.5062   64.8442 C   0  0  0  0  0  0  0  0  0  0  0  0
  -39.9932   62.2159   65.8586 O   0  0  0  0  0  0  0  0  0  0  0  0
  -39.7160   61.5972   66.5523 H   0  0  0  0  0  0  0  0  0  0  0  0
  -39.7656   60.5031   64.2186 C   0  0  0  0  0  0  0  0  0  0  0  0
  -39.0581   59.8177   65.2715 O   0  0  0  0  0  0  0  0  0  0  0  0
  -37.4993   60.0676   65.4637 P   0  0  0  0  0  0  0  0  0  0  0  0
  -37.3381   60.8722   66.6916 O   0  0  0  0  0  0  0  0  0  0  0  0
  -36.8412   58.7491   65.3761 O   0  0  0  0  0  0  0  0  0  0  0  0
  -37.1357   58.1912   66.1129 H   0  0  0  0  0  0  0  0  0  0  0  0
  -36.9816   60.9325   64.2387 O   0  0  0  0  0  0  0  0  0  0  0  0
  -35.6637   61.5280   64.2874 C   0  0  0  0  0  0  0  0  0  0  0  0
  -35.8868   63.0210   64.3709 C   0  0  0  0  0  0  0  0  0  0  0  0
  -34.7427   63.8962   63.8991 N   0  0  0  0  0  0  0  0  0  0  0  0
  -33.4823   63.1051   63.7567 C   0  0  0  0  0  0  0  0  0  0  0  0
  -34.5097   64.9919   64.8894 C   0  0  0  0  0  0  0  0  0  0  0  0
  -35.0844   64.4952   62.5711 C   0  0  0  0  0  0  0  0  0  0  0  0
 34 33  1  0  0  0
 34 35  1  0  0  0
 34 36  1  0  0  0
 34 37  1  0  0  0
 22 23  1  0  0  0
 22 25  1  0  0  0
 22 21  1  0  0  0
 23 24  1  0  0  0
 27 26  1  0  0  0
 27 28  2  0  0  0
 27 31  1  0  0  0
 27 29  1  0  0  0
 25 26  1  0  0  0
 32 33  1  0  0  0
 32 31  1  0  0  0
 29 30  1  0  0  0
 20 21  1  0  0  0
 20  2  1  0  0  0
  1  2  2  0  0  0
  2  3  1  0  0  0
  3  4  1  0  0  0
  4  5  1  0  0  0
  5  6  1  0  0  0
  6  7  1  0  0  0
  7  8  1  0  0  0
  8  9  1  0  0  0
  9 10  1  0  0  0
 10 11  2  0  0  0
 11 12  1  0  0  0
 12 13  1  0  0  0
 13 14  1  0  0  0
 14 15  1  0  0  0
 15 16  1  0  0  0
 16 17  1  0  0  0
 17 18  1  0  0  0
 18 19  1  0  0  0
M  CHG 1  28  -1
M  END
> <minimizedAffinity>
-7.92425

> <CNNscore>
0.7412919402

> <CNNaffinity>
6.5506057739

> <CNN_VS>
4.8559112549

> <CNNaffinity_variance>
0.3938033283

$$$$
/media/chris/experiments/cd1a-new-docking/inputs/ligands/4x6c_ligand.pdb


 37 36  0  0  0  0  0  0  0  0999 V2000
  -42.6116   60.2708   67.0647 O   0  0  0  0  0  0  0  0  0  0  0  0
  -43.0128   59.8770   66.0126 C   0  0  0  0  0  0  0  0  0  0  0  0
  -44.4560   59.7060   65.6675 C   0  0  0  0  0  0  0  0  0  0  0  0
  -44.8602   58.2511   65.5217 C   0  0  0  0  0  0  0  0  0  0  0  0
  -46.0907   58.0649   64.6604 C   0  0  0  0  0  0  0  0  0  0  0  0
  -47.2983   57.5381   65.3993 C   0  0  0  0  0  0  0  0  0  0  0  0
  -48.5475   58.3549   65.1877 C   0  0  0  0  0  0  0  0  0  0  0  0
  -48.2801   59.6267   64.4285 C   0  0  0  0  0  0  0  0  0  0  0  0
  -49.4878   60.2870   63.8324 C   0  0  0  0  0  0  0  0  0  0  0  0
  -49.4580   60.3395   62.3636 C   0  0  0  0  0  0  0  0  0  0  0  0
  -49.8775   59.4287   61.5132 C   0  0  0  0  0  0  0  0  0  0  0  0
  -50.5112   58.1202   61.8145 C   0  0  0  0  0  0  0  0  0  0  0  0
  -50.8425   57.2623   60.6106 C   0  0  0  0  0  0  0  0  0  0  0  0
  -49.7353   57.2361   59.5930 C   0  0  0  0  0  0  0  0  0  0  0  0
  -48.8254   56.0379   59.6833 C   0  0  0  0  0  0  0  0  0  0  0  0
  -47.5001   56.2605   58.9886 C   0  0  0  0  0  0  0  0  0  0  0  0
  -47.5377   57.2453   57.8535 C   0  0  0  0  0  0  0  0  0  0  0  0
  -47.3012   56.6232   56.5358 C   0  0  0  0  0  0  0  0  0  0  0  0
  -47.4308   55.1675   56.5498 C   0  0  0  0  0  0  0  0  0  0  0  0
  -42.2196   59.5270   65.0001 O   0  0  0  0  0  0  0  0  0  0  0  0
  -40.9684   58.8810   65.3247 C   0  0  0  0  0  0  0  0  0  0  0  0
  -39.8729   59.6682   64.6429 C   0  0  0  0  0  0  0  0  0  0  0  0
  -40.4215   60.3905   63.5405 O   0  0  0  0  0  0  0  0  0  0  0  0
  -41.0662   61.0377   63.8666 H   0  0  0  0  0  0  0  0  0  0  0  0
  -39.1384   60.6423   65.5318 C   0  0  0  0  0  0  0  0  0  0  0  0
  -38.4769   61.6152   64.6982 O   0  0  0  0  0  0  0  0  0  0  0  0
  -36.9438   61.9545   64.9504 P   0  0  0  0  0  0  0  0  0  0  0  0
  -36.4448   62.6312   63.7363 O   0  0  0  0  0  0  0  0  0  0  0  0
  -36.8691   62.6560   66.2471 O   0  0  0  0  0  0  0  0  0  0  0  0
  -37.3437   63.4998   66.1861 H   0  0  0  0  0  0  0  0  0  0  0  0
  -36.1539   60.5880   65.1103 O   0  0  0  0  0  0  0  0  0  0  0  0
  -35.4739   60.0149   63.9688 C   0  0  0  0  0  0  0  0  0  0  0  0
  -36.5285   59.2537   63.1980 C   0  0  0  0  0  0  0  0  0  0  0  0
  -36.5377   57.7493   63.3836 N   0  0  0  0  0  0  0  0  0  0  0  0
  -35.2571   57.1400   62.9109 C   0  0  0  0  0  0  0  0  0  0  0  0
  -37.6660   57.1558   62.6025 C   0  0  0  0  0  0  0  0  0  0  0  0
  -36.7159   57.4242   64.8334 C   0  0  0  0  0  0  0  0  0  0  0  0
 34 33  1  0  0  0
 34 35  1  0  0  0
 34 36  1  0  0  0
 34 37  1  0  0  0
 22 23  1  0  0  0
 22 25  1  0  0  0
 22 21  1  0  0  0
 23 24  1  0  0  0
 27 26  1  0  0  0
 27 28  2  0  0  0
 27 31  1  0  0  0
 27 29  1  0  0  0
 25 26  1  0  0  0
 32 33  1  0  0  0
 32 31  1  0  0  0
 29 30  1  0  0  0
 20 21  1  0  0  0
 20  2  1  0  0  0
  1  2  2  0  0  0
  2  3  1  0  0  0
  3  4  1  0  0  0
  4  5  1  0  0  0
  5  6  1  0  0  0
  6  7  1  0  0  0
  7  8  1  0  0  0
  8  9  1  0  0  0
  9 10  1  0  0  0
 10 11  2  0  0  0
 11 12  1  0  0  0
 12 13  1  0  0  0
 13 14  1  0  0  0
 14 15  1  0  0  0
 15 16  1  0  0  0
 16 17  1  0  0  0
 17 18  1  0  0  0
 18 19  1  0  0  0
M  CHG 1  28  -1
M  END
> <minimizedAffinity>
-8.01918

> <CNNscore>
0.7269720435

> <CNNaffinity>
6.8226265907

> <CNN_VS>
4.9598588943

> <CNNaffinity_variance>
0.3328267932

$$$$
