/media/chris/experiments/cd1a-new-docking/inputs/ligands/4x6c_ligand.pdb


 37 36  0  0  0  0  0  0  0  0999 V2000
  -42.5756   57.5973   66.1540 O   0  0  0  0  0  0  0  0  0  0  0  0
  -42.6817   58.5216   65.4074 C   0  0  0  0  0  0  0  0  0  0  0  0
  -43.9120   58.8378   64.6215 C   0  0  0  0  0  0  0  0  0  0  0  0
  -45.0118   59.4515   65.4673 C   0  0  0  0  0  0  0  0  0  0  0  0
  -46.1402   58.4856   65.7576 C   0  0  0  0  0  0  0  0  0  0  0  0
  -47.3306   58.6185   64.8373 C   0  0  0  0  0  0  0  0  0  0  0  0
  -48.3172   57.4842   64.9479 C   0  0  0  0  0  0  0  0  0  0  0  0
  -49.7443   57.9624   64.9462 C   0  0  0  0  0  0  0  0  0  0  0  0
  -49.9329   59.4274   65.2078 C   0  0  0  0  0  0  0  0  0  0  0  0
  -50.9730   60.0400   64.3688 C   0  0  0  0  0  0  0  0  0  0  0  0
  -50.8637   60.4722   63.1319 C   0  0  0  0  0  0  0  0  0  0  0  0
  -49.6677   60.4336   62.2530 C   0  0  0  0  0  0  0  0  0  0  0  0
  -49.7846   59.5478   61.0295 C   0  0  0  0  0  0  0  0  0  0  0  0
  -50.1115   58.1208   61.3741 C   0  0  0  0  0  0  0  0  0  0  0  0
  -49.0002   57.1381   61.1068 C   0  0  0  0  0  0  0  0  0  0  0  0
  -49.3630   56.1250   60.0436 C   0  0  0  0  0  0  0  0  0  0  0  0
  -48.3257   55.9315   58.9729 C   0  0  0  0  0  0  0  0  0  0  0  0
  -47.8211   57.2020   58.4157 C   0  0  0  0  0  0  0  0  0  0  0  0
  -46.9803   57.0237   57.2336 C   0  0  0  0  0  0  0  0  0  0  0  0
  -41.7056   59.3971   65.1674 O   0  0  0  0  0  0  0  0  0  0  0  0
  -41.6635   60.5898   65.9821 C   0  0  0  0  0  0  0  0  0  0  0  0
  -40.5456   61.4541   65.4453 C   0  0  0  0  0  0  0  0  0  0  0  0
  -40.5959   62.7380   66.0674 O   0  0  0  0  0  0  0  0  0  0  0  0
  -40.4394   62.6420   67.0199 H   0  0  0  0  0  0  0  0  0  0  0  0
  -39.1576   60.8902   65.6294 C   0  0  0  0  0  0  0  0  0  0  0  0
  -38.3856   61.1759   64.4456 O   0  0  0  0  0  0  0  0  0  0  0  0
  -36.9141   61.7620   64.5888 P   0  0  0  0  0  0  0  0  0  0  0  0
  -36.6032   62.4640   63.3272 O   0  0  0  0  0  0  0  0  0  0  0  0
  -36.8751   62.5136   65.8587 O   0  0  0  0  0  0  0  0  0  0  0  0
  -37.4813   63.2690   65.8061 H   0  0  0  0  0  0  0  0  0  0  0  0
  -35.9078   60.5441   64.7334 O   0  0  0  0  0  0  0  0  0  0  0  0
  -36.3921   59.1904   64.5704 C   0  0  0  0  0  0  0  0  0  0  0  0
  -36.2278   58.8658   63.1029 C   0  0  0  0  0  0  0  0  0  0  0  0
  -37.4363   58.2677   62.4104 N   0  0  0  0  0  0  0  0  0  0  0  0
  -38.5329   57.9868   63.3868 C   0  0  0  0  0  0  0  0  0  0  0  0
  -37.0484   56.9858   61.7458 C   0  0  0  0  0  0  0  0  0  0  0  0
  -37.9472   59.2239   61.3789 C   0  0  0  0  0  0  0  0  0  0  0  0
 34 33  1  0  0  0
 34 35  1  0  0  0
 34 36  1  0  0  0
 34 37  1  0  0  0
 22 23  1  0  0  0
 22 25  1  0  0  0
 22 21  1  0  0  0
 23 24  1  0  0  0
 27 26  1  0  0  0
 27 28  2  0  0  0
 27 31  1  0  0  0
 27 29  1  0  0  0
 25 26  1  0  0  0
 32 33  1  0  0  0
 32 31  1  0  0  0
 29 30  1  0  0  0
 20 21  1  0  0  0
 20  2  1  0  0  0
  1  2  2  0  0  0
  2  3  1  0  0  0
  3  4  1  0  0  0
  4  5  1  0  0  0
  5  6  1  0  0  0
  6  7  1  0  0  0
  7  8  1  0  0  0
  8  9  1  0  0  0
  9 10  1  0  0  0
 10 11  2  0  0  0
 11 12  1  0  0  0
 12 13  1  0  0  0
 13 14  1  0  0  0
 14 15  1  0  0  0
 15 16  1  0  0  0
 16 17  1  0  0  0
 17 18  1  0  0  0
 18 19  1  0  0  0
M  CHG 1  28  -1
M  END
> <minimizedAffinity>
-8.13137

> <CNNscore>
0.8128419518

> <CNNaffinity>
7.0049948692

> <CNN_VS>
5.6939535141

> <CNNaffinity_variance>
0.2511774898

$$$$
/media/chris/experiments/cd1a-new-docking/inputs/ligands/4x6c_ligand.pdb


 37 36  0  0  0  0  0  0  0  0999 V2000
  -40.6680   59.0928   64.7842 O   0  0  0  0  0  0  0  0  0  0  0  0
  -41.2956   60.0509   64.4509 C   0  0  0  0  0  0  0  0  0  0  0  0
  -42.7794   60.1743   64.5710 C   0  0  0  0  0  0  0  0  0  0  0  0
  -43.3963   59.0804   65.4220 C   0  0  0  0  0  0  0  0  0  0  0  0
  -44.4074   58.2456   64.6663 C   0  0  0  0  0  0  0  0  0  0  0  0
  -44.9493   57.0666   65.4397 C   0  0  0  0  0  0  0  0  0  0  0  0
  -46.3001   57.3136   66.0616 C   0  0  0  0  0  0  0  0  0  0  0  0
  -47.1454   58.2530   65.2441 C   0  0  0  0  0  0  0  0  0  0  0  0
  -48.1577   57.5977   64.3520 C   0  0  0  0  0  0  0  0  0  0  0  0
  -49.4830   58.2310   64.4109 C   0  0  0  0  0  0  0  0  0  0  0  0
  -50.2358   58.6262   63.4079 C   0  0  0  0  0  0  0  0  0  0  0  0
  -49.9533   58.5153   61.9546 C   0  0  0  0  0  0  0  0  0  0  0  0
  -50.8755   57.5979   61.1781 C   0  0  0  0  0  0  0  0  0  0  0  0
  -50.1818   56.9067   60.0366 C   0  0  0  0  0  0  0  0  0  0  0  0
  -48.6991   56.7123   60.2259 C   0  0  0  0  0  0  0  0  0  0  0  0
  -47.9796   56.4258   58.9264 C   0  0  0  0  0  0  0  0  0  0  0  0
  -48.7569   56.7626   57.6845 C   0  0  0  0  0  0  0  0  0  0  0  0
  -48.1793   56.1750   56.4596 C   0  0  0  0  0  0  0  0  0  0  0  0
  -46.8482   55.6060   56.6611 C   0  0  0  0  0  0  0  0  0  0  0  0
  -40.7523   61.1440   63.9154 O   0  0  0  0  0  0  0  0  0  0  0  0
  -41.2868   61.6062   62.6549 C   0  0  0  0  0  0  0  0  0  0  0  0
  -40.5712   60.8438   61.5636 C   0  0  0  0  0  0  0  0  0  0  0  0
  -40.9840   61.3371   60.2891 O   0  0  0  0  0  0  0  0  0  0  0  0
  -40.7171   62.2653   60.1998 H   0  0  0  0  0  0  0  0  0  0  0  0
  -39.0642   60.8979   61.6292 C   0  0  0  0  0  0  0  0  0  0  0  0
  -38.5457   59.5794   61.3618 O   0  0  0  0  0  0  0  0  0  0  0  0
  -37.6737   58.8383   62.4664 P   0  0  0  0  0  0  0  0  0  0  0  0
  -37.1528   59.8784   63.3763 O   0  0  0  0  0  0  0  0  0  0  0  0
  -38.5121   57.7552   63.0168 O   0  0  0  0  0  0  0  0  0  0  0  0
  -39.2808   58.1384   63.4673 H   0  0  0  0  0  0  0  0  0  0  0  0
  -36.4377   58.1540   61.7446 O   0  0  0  0  0  0  0  0  0  0  0  0
  -35.5094   57.3553   62.5153 C   0  0  0  0  0  0  0  0  0  0  0  0
  -34.1973   58.1060   62.4902 C   0  0  0  0  0  0  0  0  0  0  0  0
  -33.6503   58.5429   63.8347 N   0  0  0  0  0  0  0  0  0  0  0  0
  -32.2362   58.0921   64.0136 C   0  0  0  0  0  0  0  0  0  0  0  0
  -34.4817   57.9533   64.9285 C   0  0  0  0  0  0  0  0  0  0  0  0
  -33.6927   60.0356   63.9320 C   0  0  0  0  0  0  0  0  0  0  0  0
 34 33  1  0  0  0
 34 35  1  0  0  0
 34 36  1  0  0  0
 34 37  1  0  0  0
 22 23  1  0  0  0
 22 25  1  0  0  0
 22 21  1  0  0  0
 23 24  1  0  0  0
 27 26  1  0  0  0
 27 28  2  0  0  0
 27 31  1  0  0  0
 27 29  1  0  0  0
 25 26  1  0  0  0
 32 33  1  0  0  0
 32 31  1  0  0  0
 29 30  1  0  0  0
 20 21  1  0  0  0
 20  2  1  0  0  0
  1  2  2  0  0  0
  2  3  1  0  0  0
  3  4  1  0  0  0
  4  5  1  0  0  0
  5  6  1  0  0  0
  6  7  1  0  0  0
  7  8  1  0  0  0
  8  9  1  0  0  0
  9 10  1  0  0  0
 10 11  2  0  0  0
 11 12  1  0  0  0
 12 13  1  0  0  0
 13 14  1  0  0  0
 14 15  1  0  0  0
 15 16  1  0  0  0
 16 17  1  0  0  0
 17 18  1  0  0  0
 18 19  1  0  0  0
M  CHG 1  28  -1
M  END
> <minimizedAffinity>
-8.00250

> <CNNscore>
0.7982733846

> <CNNaffinity>
6.7769670486

> <CNN_VS>
5.4098725319

> <CNNaffinity_variance>
0.7848994732

$$$$
/media/chris/experiments/cd1a-new-docking/inputs/ligands/4x6c_ligand.pdb


 37 36  0  0  0  0  0  0  0  0999 V2000
  -42.0401   58.0366   65.7378 O   0  0  0  0  0  0  0  0  0  0  0  0
  -42.3602   59.1843   65.6800 C   0  0  0  0  0  0  0  0  0  0  0  0
  -43.7699   59.6650   65.5661 C   0  0  0  0  0  0  0  0  0  0  0  0
  -44.7454   58.5571   65.2165 C   0  0  0  0  0  0  0  0  0  0  0  0
  -45.7117   58.2469   66.3392 C   0  0  0  0  0  0  0  0  0  0  0  0
  -47.0415   58.9559   66.2346 C   0  0  0  0  0  0  0  0  0  0  0  0
  -47.5090   59.1704   64.8177 C   0  0  0  0  0  0  0  0  0  0  0  0
  -48.4480   58.0897   64.3532 C   0  0  0  0  0  0  0  0  0  0  0  0
  -49.8190   58.1227   64.9610 C   0  0  0  0  0  0  0  0  0  0  0  0
  -50.3565   59.4825   65.1129 C   0  0  0  0  0  0  0  0  0  0  0  0
  -50.9169   60.2379   64.1941 C   0  0  0  0  0  0  0  0  0  0  0  0
  -51.1731   59.9057   62.7699 C   0  0  0  0  0  0  0  0  0  0  0  0
  -50.0371   60.2078   61.8143 C   0  0  0  0  0  0  0  0  0  0  0  0
  -49.6779   59.0320   60.9479 C   0  0  0  0  0  0  0  0  0  0  0  0
  -50.5382   57.8116   61.1547 C   0  0  0  0  0  0  0  0  0  0  0  0
  -50.1259   56.6534   60.2733 C   0  0  0  0  0  0  0  0  0  0  0  0
  -49.0132   56.9563   59.3088 C   0  0  0  0  0  0  0  0  0  0  0  0
  -47.9054   55.9829   59.3747 C   0  0  0  0  0  0  0  0  0  0  0  0
  -47.1110   55.9243   58.1493 C   0  0  0  0  0  0  0  0  0  0  0  0
  -41.4946   60.1977   65.7015 O   0  0  0  0  0  0  0  0  0  0  0  0
  -40.4589   60.2127   64.6940 C   0  0  0  0  0  0  0  0  0  0  0  0
  -39.5532   61.3818   65.0065 C   0  0  0  0  0  0  0  0  0  0  0  0
  -40.2041   62.2546   65.9299 O   0  0  0  0  0  0  0  0  0  0  0  0
  -40.3526   61.7873   66.7668 H   0  0  0  0  0  0  0  0  0  0  0  0
  -38.2039   61.0110   65.5726 C   0  0  0  0  0  0  0  0  0  0  0  0
  -37.4885   62.2233   65.8845 O   0  0  0  0  0  0  0  0  0  0  0  0
  -36.0742   62.4973   65.2106 P   0  0  0  0  0  0  0  0  0  0  0  0
  -35.2164   61.3348   65.5167 O   0  0  0  0  0  0  0  0  0  0  0  0
  -36.3335   62.8486   63.8005 O   0  0  0  0  0  0  0  0  0  0  0  0
  -36.7262   62.0878   63.3447 H   0  0  0  0  0  0  0  0  0  0  0  0
  -35.4351   63.7741   65.9022 O   0  0  0  0  0  0  0  0  0  0  0  0
  -33.9971   63.9339   65.9235 C   0  0  0  0  0  0  0  0  0  0  0  0
  -33.7085   65.1903   65.1336 C   0  0  0  0  0  0  0  0  0  0  0  0
  -32.7958   65.0316   63.9338 N   0  0  0  0  0  0  0  0  0  0  0  0
  -31.4233   65.5454   64.2290 C   0  0  0  0  0  0  0  0  0  0  0  0
  -33.3535   65.7964   62.7765 C   0  0  0  0  0  0  0  0  0  0  0  0
  -32.6964   63.5841   63.5675 C   0  0  0  0  0  0  0  0  0  0  0  0
 34 33  1  0  0  0
 34 35  1  0  0  0
 34 36  1  0  0  0
 34 37  1  0  0  0
 22 23  1  0  0  0
 22 25  1  0  0  0
 22 21  1  0  0  0
 23 24  1  0  0  0
 27 26  1  0  0  0
 27 28  2  0  0  0
 27 31  1  0  0  0
 27 29  1  0  0  0
 25 26  1  0  0  0
 32 33  1  0  0  0
 32 31  1  0  0  0
 29 30  1  0  0  0
 20 21  1  0  0  0
 20  2  1  0  0  0
  1  2  2  0  0  0
  2  3  1  0  0  0
  3  4  1  0  0  0
  4  5  1  0  0  0
  5  6  1  0  0  0
  6  7  1  0  0  0
  7  8  1  0  0  0
  8  9  1  0  0  0
  9 10  1  0  0  0
 10 11  2  0  0  0
 11 12  1  0  0  0
 12 13  1  0  0  0
 13 14  1  0  0  0
 14 15  1  0  0  0
 15 16  1  0  0  0
 16 17  1  0  0  0
 17 18  1  0  0  0
 18 19  1  0  0  0
M  CHG 1  28  -1
M  END
> <minimizedAffinity>
-8.15813

> <CNNscore>
0.7951688170

> <CNNaffinity>
6.3764872551

> <CNN_VS>
5.0703840256

> <CNNaffinity_variance>
0.3545946479

$$$$
/media/chris/experiments/cd1a-new-docking/inputs/ligands/4x6c_ligand.pdb


 37 36  0  0  0  0  0  0  0  0999 V2000
  -40.5794   61.8371   65.7532 O   0  0  0  0  0  0  0  0  0  0  0  0
  -41.0400   60.8025   65.3787 C   0  0  0  0  0  0  0  0  0  0  0  0
  -41.8701   59.8910   66.2222 C   0  0  0  0  0  0  0  0  0  0  0  0
  -42.6866   58.9089   65.4035 C   0  0  0  0  0  0  0  0  0  0  0  0
  -43.9899   59.4964   64.9069 C   0  0  0  0  0  0  0  0  0  0  0  0
  -45.1553   59.3235   65.8523 C   0  0  0  0  0  0  0  0  0  0  0  0
  -46.4844   59.1624   65.1596 C   0  0  0  0  0  0  0  0  0  0  0  0
  -47.3226   60.4107   65.2283 C   0  0  0  0  0  0  0  0  0  0  0  0
  -48.7302   60.2694   64.7294 C   0  0  0  0  0  0  0  0  0  0  0  0
  -48.9304   60.8270   63.3840 C   0  0  0  0  0  0  0  0  0  0  0  0
  -49.7935   60.4429   62.4696 C   0  0  0  0  0  0  0  0  0  0  0  0
  -50.8058   59.3611   62.5659 C   0  0  0  0  0  0  0  0  0  0  0  0
  -50.2512   57.9549   62.6671 C   0  0  0  0  0  0  0  0  0  0  0  0
  -49.2396   57.6506   61.5965 C   0  0  0  0  0  0  0  0  0  0  0  0
  -49.8252   57.1488   60.3014 C   0  0  0  0  0  0  0  0  0  0  0  0
  -48.8203   56.3875   59.4652 C   0  0  0  0  0  0  0  0  0  0  0  0
  -48.2776   57.1426   58.2841 C   0  0  0  0  0  0  0  0  0  0  0  0
  -46.9273   56.7015   57.8823 C   0  0  0  0  0  0  0  0  0  0  0  0
  -46.8743   56.1566   56.5272 C   0  0  0  0  0  0  0  0  0  0  0  0
  -40.8669   60.3149   64.1503 O   0  0  0  0  0  0  0  0  0  0  0  0
  -40.6622   61.2624   63.0786 C   0  0  0  0  0  0  0  0  0  0  0  0
  -39.7316   60.6103   62.0820 C   0  0  0  0  0  0  0  0  0  0  0  0
  -40.1195   60.9770   60.7579 O   0  0  0  0  0  0  0  0  0  0  0  0
  -40.0191   61.9352   60.6454 H   0  0  0  0  0  0  0  0  0  0  0  0
  -38.2703   60.9442   62.2593 C   0  0  0  0  0  0  0  0  0  0  0  0
  -38.1535   61.9762   63.2593 O   0  0  0  0  0  0  0  0  0  0  0  0
  -37.1668   61.7712   64.4897 P   0  0  0  0  0  0  0  0  0  0  0  0
  -35.8581   62.3285   64.0925 O   0  0  0  0  0  0  0  0  0  0  0  0
  -37.8491   62.3158   65.6800 O   0  0  0  0  0  0  0  0  0  0  0  0
  -37.9772   63.2710   65.5707 H   0  0  0  0  0  0  0  0  0  0  0  0
  -36.9855   60.2128   64.7248 O   0  0  0  0  0  0  0  0  0  0  0  0
  -35.6683   59.6215   64.6286 C   0  0  0  0  0  0  0  0  0  0  0  0
  -35.5874   59.0136   63.2467 C   0  0  0  0  0  0  0  0  0  0  0  0
  -35.6379   57.5002   63.1772 N   0  0  0  0  0  0  0  0  0  0  0  0
  -35.7611   56.9018   64.5416 C   0  0  0  0  0  0  0  0  0  0  0  0
  -34.3859   56.9867   62.5415 C   0  0  0  0  0  0  0  0  0  0  0  0
  -36.8171   57.0750   62.3598 C   0  0  0  0  0  0  0  0  0  0  0  0
 34 33  1  0  0  0
 34 35  1  0  0  0
 34 36  1  0  0  0
 34 37  1  0  0  0
 22 23  1  0  0  0
 22 25  1  0  0  0
 22 21  1  0  0  0
 23 24  1  0  0  0
 27 26  1  0  0  0
 27 28  2  0  0  0
 27 31  1  0  0  0
 27 29  1  0  0  0
 25 26  1  0  0  0
 32 33  1  0  0  0
 32 31  1  0  0  0
 29 30  1  0  0  0
 20 21  1  0  0  0
 20  2  1  0  0  0
  1  2  2  0  0  0
  2  3  1  0  0  0
  3  4  1  0  0  0
  4  5  1  0  0  0
  5  6  1  0  0  0
  6  7  1  0  0  0
  7  8  1  0  0  0
  8  9  1  0  0  0
  9 10  1  0  0  0
 10 11  2  0  0  0
 11 12  1  0  0  0
 12 13  1  0  0  0
 13 14  1  0  0  0
 14 15  1  0  0  0
 15 16  1  0  0  0
 16 17  1  0  0  0
 17 18  1  0  0  0
 18 19  1  0  0  0
M  CHG 1  28  -1
M  END
> <minimizedAffinity>
-7.97545

> <CNNscore>
0.7920119762

> <CNNaffinity>
6.7600617409

> <CNN_VS>
5.3540496826

> <CNNaffinity_variance>
0.3133576512

$$$$
/media/chris/experiments/cd1a-new-docking/inputs/ligands/4x6c_ligand.pdb


 37 36  0  0  0  0  0  0  0  0999 V2000
  -40.7350   58.7226   65.1180 O   0  0  0  0  0  0  0  0  0  0  0  0
  -41.2211   59.7769   64.8440 C   0  0  0  0  0  0  0  0  0  0  0  0
  -42.6667   59.9868   64.5318 C   0  0  0  0  0  0  0  0  0  0  0  0
  -43.5884   59.1967   65.4415 C   0  0  0  0  0  0  0  0  0  0  0  0
  -45.0504   59.5227   65.2259 C   0  0  0  0  0  0  0  0  0  0  0  0
  -45.9728   58.3275   65.2781 C   0  0  0  0  0  0  0  0  0  0  0  0
  -47.4024   58.6738   65.6077 C   0  0  0  0  0  0  0  0  0  0  0  0
  -48.3513   57.5463   65.3018 C   0  0  0  0  0  0  0  0  0  0  0  0
  -49.5556   57.9205   64.4896 C   0  0  0  0  0  0  0  0  0  0  0  0
  -50.1994   59.1628   64.9404 C   0  0  0  0  0  0  0  0  0  0  0  0
  -50.8051   60.0716   64.2082 C   0  0  0  0  0  0  0  0  0  0  0  0
  -51.0161   60.0688   62.7386 C   0  0  0  0  0  0  0  0  0  0  0  0
  -49.8088   60.4459   61.9048 C   0  0  0  0  0  0  0  0  0  0  0  0
  -49.6764   59.6093   60.6620 C   0  0  0  0  0  0  0  0  0  0  0  0
  -49.7512   58.1217   60.8935 C   0  0  0  0  0  0  0  0  0  0  0  0
  -49.5451   57.3246   59.6244 C   0  0  0  0  0  0  0  0  0  0  0  0
  -48.8486   56.0056   59.8112 C   0  0  0  0  0  0  0  0  0  0  0  0
  -47.7014   55.8197   58.9009 C   0  0  0  0  0  0  0  0  0  0  0  0
  -47.5059   56.9364   57.9785 C   0  0  0  0  0  0  0  0  0  0  0  0
  -40.5314   60.9153   64.7718 O   0  0  0  0  0  0  0  0  0  0  0  0
  -39.3336   61.0222   65.5729 C   0  0  0  0  0  0  0  0  0  0  0  0
  -38.2706   61.6485   64.6997 C   0  0  0  0  0  0  0  0  0  0  0  0
  -37.4100   62.4563   65.5027 O   0  0  0  0  0  0  0  0  0  0  0  0
  -36.9469   61.8959   66.1448 H   0  0  0  0  0  0  0  0  0  0  0  0
  -37.4201   60.6695   63.9273 C   0  0  0  0  0  0  0  0  0  0  0  0
  -38.0428   60.4295   62.6493 O   0  0  0  0  0  0  0  0  0  0  0  0
  -37.7760   59.0578   61.8897 P   0  0  0  0  0  0  0  0  0  0  0  0
  -38.3091   57.9785   62.7452 O   0  0  0  0  0  0  0  0  0  0  0  0
  -38.3042   59.2178   60.5206 O   0  0  0  0  0  0  0  0  0  0  0  0
  -39.2652   59.3435   60.5573 H   0  0  0  0  0  0  0  0  0  0  0  0
  -36.2071   58.8567   61.7667 O   0  0  0  0  0  0  0  0  0  0  0  0
  -35.5894   57.6748   62.3282 C   0  0  0  0  0  0  0  0  0  0  0  0
  -34.1325   58.0250   62.5294 C   0  0  0  0  0  0  0  0  0  0  0  0
  -33.7491   58.5282   63.9069 N   0  0  0  0  0  0  0  0  0  0  0  0
  -32.3719   58.0819   64.2797 C   0  0  0  0  0  0  0  0  0  0  0  0
  -34.7134   57.9983   64.9192 C   0  0  0  0  0  0  0  0  0  0  0  0
  -33.7883   60.0240   63.9231 C   0  0  0  0  0  0  0  0  0  0  0  0
 34 33  1  0  0  0
 34 35  1  0  0  0
 34 36  1  0  0  0
 34 37  1  0  0  0
 22 23  1  0  0  0
 22 25  1  0  0  0
 22 21  1  0  0  0
 23 24  1  0  0  0
 27 26  1  0  0  0
 27 28  2  0  0  0
 27 31  1  0  0  0
 27 29  1  0  0  0
 25 26  1  0  0  0
 32 33  1  0  0  0
 32 31  1  0  0  0
 29 30  1  0  0  0
 20 21  1  0  0  0
 20  2  1  0  0  0
  1  2  2  0  0  0
  2  3  1  0  0  0
  3  4  1  0  0  0
  4  5  1  0  0  0
  5  6  1  0  0  0
  6  7  1  0  0  0
  7  8  1  0  0  0
  8  9  1  0  0  0
  9 10  1  0  0  0
 10 11  2  0  0  0
 11 12  1  0  0  0
 12 13  1  0  0  0
 13 14  1  0  0  0
 14 15  1  0  0  0
 15 16  1  0  0  0
 16 17  1  0  0  0
 17 18  1  0  0  0
 18 19  1  0  0  0
M  CHG 1  28  -1
M  END
> <minimizedAffinity>
-7.93432

> <CNNscore>
0.7863357067

> <CNNaffinity>
6.6651053429

> <CNN_VS>
5.2410101891

> <CNNaffinity_variance>
0.4255845547

$$$$
/media/chris/experiments/cd1a-new-docking/inputs/ligands/4x6c_ligand.pdb


 37 36  0  0  0  0  0  0  0  0999 V2000
  -41.4737   58.7090   66.3169 O   0  0  0  0  0  0  0  0  0  0  0  0
  -41.5495   59.2660   65.2648 C   0  0  0  0  0  0  0  0  0  0  0  0
  -42.7631   59.9848   64.7733 C   0  0  0  0  0  0  0  0  0  0  0  0
  -44.0389   59.5222   65.4513 C   0  0  0  0  0  0  0  0  0  0  0  0
  -44.7537   58.4329   64.6813 C   0  0  0  0  0  0  0  0  0  0  0  0
  -45.8122   57.6994   65.4708 C   0  0  0  0  0  0  0  0  0  0  0  0
  -47.0861   58.4832   65.6588 C   0  0  0  0  0  0  0  0  0  0  0  0
  -48.1185   58.1602   64.6123 C   0  0  0  0  0  0  0  0  0  0  0  0
  -49.5333   58.0844   65.1052 C   0  0  0  0  0  0  0  0  0  0  0  0
  -50.1849   59.3980   65.2104 C   0  0  0  0  0  0  0  0  0  0  0  0
  -50.8406   60.0524   64.2774 C   0  0  0  0  0  0  0  0  0  0  0  0
  -51.1129   59.6254   62.8818 C   0  0  0  0  0  0  0  0  0  0  0  0
  -49.9784   59.8382   61.9006 C   0  0  0  0  0  0  0  0  0  0  0  0
  -49.9452   58.7969   60.8157 C   0  0  0  0  0  0  0  0  0  0  0  0
  -49.3234   57.4850   61.2211 C   0  0  0  0  0  0  0  0  0  0  0  0
  -49.2459   56.4997   60.0758 C   0  0  0  0  0  0  0  0  0  0  0  0
  -49.0718   57.1199   58.7176 C   0  0  0  0  0  0  0  0  0  0  0  0
  -47.8428   56.6777   58.0295 C   0  0  0  0  0  0  0  0  0  0  0  0
  -47.0543   55.7235   58.8066 C   0  0  0  0  0  0  0  0  0  0  0  0
  -40.5557   59.3143   64.3778 O   0  0  0  0  0  0  0  0  0  0  0  0
  -39.4297   58.4334   64.5881 C   0  0  0  0  0  0  0  0  0  0  0  0
  -38.4080   58.7576   63.5225 C   0  0  0  0  0  0  0  0  0  0  0  0
  -38.9780   59.6614   62.5758 O   0  0  0  0  0  0  0  0  0  0  0  0
  -39.1938   60.4979   63.0169 H   0  0  0  0  0  0  0  0  0  0  0  0
  -37.1193   59.3546   64.0338 C   0  0  0  0  0  0  0  0  0  0  0  0
  -37.4126   60.1480   65.2014 O   0  0  0  0  0  0  0  0  0  0  0  0
  -37.7160   61.7009   65.0410 P   0  0  0  0  0  0  0  0  0  0  0  0
  -37.3906   62.0638   63.6469 O   0  0  0  0  0  0  0  0  0  0  0  0
  -39.0873   61.9222   65.5406 O   0  0  0  0  0  0  0  0  0  0  0  0
  -39.7174   61.4468   64.9770 H   0  0  0  0  0  0  0  0  0  0  0  0
  -36.7337   62.4989   65.9977 O   0  0  0  0  0  0  0  0  0  0  0  0
  -35.4677   61.9103   66.3781 C   0  0  0  0  0  0  0  0  0  0  0  0
  -34.4468   62.4628   65.4095 C   0  0  0  0  0  0  0  0  0  0  0  0
  -33.8993   63.8401   65.7274 N   0  0  0  0  0  0  0  0  0  0  0  0
  -34.6925   64.9065   65.0429 C   0  0  0  0  0  0  0  0  0  0  0  0
  -32.4793   63.9321   65.2688 C   0  0  0  0  0  0  0  0  0  0  0  0
  -33.9575   64.0740   67.2043 C   0  0  0  0  0  0  0  0  0  0  0  0
 34 33  1  0  0  0
 34 35  1  0  0  0
 34 36  1  0  0  0
 34 37  1  0  0  0
 22 23  1  0  0  0
 22 25  1  0  0  0
 22 21  1  0  0  0
 23 24  1  0  0  0
 27 26  1  0  0  0
 27 28  2  0  0  0
 27 31  1  0  0  0
 27 29  1  0  0  0
 25 26  1  0  0  0
 32 33  1  0  0  0
 32 31  1  0  0  0
 29 30  1  0  0  0
 20 21  1  0  0  0
 20  2  1  0  0  0
  1  2  2  0  0  0
  2  3  1  0  0  0
  3  4  1  0  0  0
  4  5  1  0  0  0
  5  6  1  0  0  0
  6  7  1  0  0  0
  7  8  1  0  0  0
  8  9  1  0  0  0
  9 10  1  0  0  0
 10 11  2  0  0  0
 11 12  1  0  0  0
 12 13  1  0  0  0
 13 14  1  0  0  0
 14 15  1  0  0  0
 15 16  1  0  0  0
 16 17  1  0  0  0
 17 18  1  0  0  0
 18 19  1  0  0  0
M  CHG 1  28  -1
M  END
> <minimizedAffinity>
-8.04154

> <CNNscore>
0.7704506516

> <CNNaffinity>
6.4771471024

> <CNN_VS>
4.9903221130

> <CNNaffinity_variance>
0.4212281704

$$$$
/media/chris/experiments/cd1a-new-docking/inputs/ligands/4x6c_ligand.pdb


 37 36  0  0  0  0  0  0  0  0999 V2000
  -42.3631   60.3218   67.1053 O   0  0  0  0  0  0  0  0  0  0  0  0
  -42.3937   59.6538   66.1175 C   0  0  0  0  0  0  0  0  0  0  0  0
  -43.5285   58.7612   65.7344 C   0  0  0  0  0  0  0  0  0  0  0  0
  -44.7762   59.5284   65.3393 C   0  0  0  0  0  0  0  0  0  0  0  0
  -45.9731   59.1909   66.2019 C   0  0  0  0  0  0  0  0  0  0  0  0
  -47.2528   58.9583   65.4337 C   0  0  0  0  0  0  0  0  0  0  0  0
  -48.2590   60.0722   65.5725 C   0  0  0  0  0  0  0  0  0  0  0  0
  -48.1193   61.1099   64.4913 C   0  0  0  0  0  0  0  0  0  0  0  0
  -48.9526   60.8791   63.2655 C   0  0  0  0  0  0  0  0  0  0  0  0
  -50.2517   60.2542   63.5533 C   0  0  0  0  0  0  0  0  0  0  0  0
  -50.7042   59.0959   63.1264 C   0  0  0  0  0  0  0  0  0  0  0  0
  -50.0123   58.1074   62.2612 C   0  0  0  0  0  0  0  0  0  0  0  0
  -50.8445   57.5301   61.1346 C   0  0  0  0  0  0  0  0  0  0  0  0
  -50.0665   57.3772   59.8565 C   0  0  0  0  0  0  0  0  0  0  0  0
  -49.2863   56.0923   59.7444 C   0  0  0  0  0  0  0  0  0  0  0  0
  -47.7956   56.3250   59.6338 C   0  0  0  0  0  0  0  0  0  0  0  0
  -47.1462   55.7085   58.4263 C   0  0  0  0  0  0  0  0  0  0  0  0
  -46.9231   56.6721   57.3304 C   0  0  0  0  0  0  0  0  0  0  0  0
  -47.7226   56.3916   56.1395 C   0  0  0  0  0  0  0  0  0  0  0  0
  -41.4078   59.6090   65.2215 O   0  0  0  0  0  0  0  0  0  0  0  0
  -41.2322   60.7588   64.3641 C   0  0  0  0  0  0  0  0  0  0  0  0
  -40.0298   61.5163   64.8789 C   0  0  0  0  0  0  0  0  0  0  0  0
  -40.4387   62.4136   65.9112 O   0  0  0  0  0  0  0  0  0  0  0  0
  -40.7887   61.9065   66.6603 H   0  0  0  0  0  0  0  0  0  0  0  0
  -38.9123   60.6537   65.4134 C   0  0  0  0  0  0  0  0  0  0  0  0
  -38.0416   61.4762   66.2160 O   0  0  0  0  0  0  0  0  0  0  0  0
  -36.5072   61.6159   65.8211 P   0  0  0  0  0  0  0  0  0  0  0  0
  -36.4483   62.4438   64.5996 O   0  0  0  0  0  0  0  0  0  0  0  0
  -35.7939   62.0681   67.0318 O   0  0  0  0  0  0  0  0  0  0  0  0
  -36.1078   62.9513   67.2811 H   0  0  0  0  0  0  0  0  0  0  0  0
  -35.9547   60.1726   65.4627 O   0  0  0  0  0  0  0  0  0  0  0  0
  -35.2943   59.9521   64.1942 C   0  0  0  0  0  0  0  0  0  0  0  0
  -36.2992   59.2319   63.3240 C   0  0  0  0  0  0  0  0  0  0  0  0
  -36.0394   57.7585   63.0806 N   0  0  0  0  0  0  0  0  0  0  0  0
  -35.8572   57.0232   64.3695 C   0  0  0  0  0  0  0  0  0  0  0  0
  -34.8001   57.5980   62.2598 C   0  0  0  0  0  0  0  0  0  0  0  0
  -37.1984   57.1595   62.3476 C   0  0  0  0  0  0  0  0  0  0  0  0
 34 33  1  0  0  0
 34 35  1  0  0  0
 34 36  1  0  0  0
 34 37  1  0  0  0
 22 23  1  0  0  0
 22 25  1  0  0  0
 22 21  1  0  0  0
 23 24  1  0  0  0
 27 26  1  0  0  0
 27 28  2  0  0  0
 27 31  1  0  0  0
 27 29  1  0  0  0
 25 26  1  0  0  0
 32 33  1  0  0  0
 32 31  1  0  0  0
 29 30  1  0  0  0
 20 21  1  0  0  0
 20  2  1  0  0  0
  1  2  2  0  0  0
  2  3  1  0  0  0
  3  4  1  0  0  0
  4  5  1  0  0  0
  5  6  1  0  0  0
  6  7  1  0  0  0
  7  8  1  0  0  0
  8  9  1  0  0  0
  9 10  1  0  0  0
 10 11  2  0  0  0
 11 12  1  0  0  0
 12 13  1  0  0  0
 13 14  1  0  0  0
 14 15  1  0  0  0
 15 16  1  0  0  0
 16 17  1  0  0  0
 17 18  1  0  0  0
 18 19  1  0  0  0
M  CHG 1  28  -1
M  END
> <minimizedAffinity>
-8.12350

> <CNNscore>
0.7576971650

> <CNNaffinity>
6.6333527565

> <CNN_VS>
5.0260725021

> <CNNaffinity_variance>
0.4083687663

$$$$
/media/chris/experiments/cd1a-new-docking/inputs/ligands/4x6c_ligand.pdb


 37 36  0  0  0  0  0  0  0  0999 V2000
  -41.3376   61.3651   65.5309 O   0  0  0  0  0  0  0  0  0  0  0  0
  -41.7003   60.4970   64.7976 C   0  0  0  0  0  0  0  0  0  0  0  0
  -42.6676   59.4221   65.1720 C   0  0  0  0  0  0  0  0  0  0  0  0
  -44.1125   59.8806   65.1125 C   0  0  0  0  0  0  0  0  0  0  0  0
  -45.0314   59.0465   65.9786 C   0  0  0  0  0  0  0  0  0  0  0  0
  -46.0355   58.2194   65.2109 C   0  0  0  0  0  0  0  0  0  0  0  0
  -47.4184   58.8181   65.1736 C   0  0  0  0  0  0  0  0  0  0  0  0
  -48.4004   57.9494   64.4345 C   0  0  0  0  0  0  0  0  0  0  0  0
  -49.8233   58.0465   64.8995 C   0  0  0  0  0  0  0  0  0  0  0  0
  -50.3153   59.4292   64.9850 C   0  0  0  0  0  0  0  0  0  0  0  0
  -50.8693   60.1506   64.0356 C   0  0  0  0  0  0  0  0  0  0  0  0
  -51.1626   59.7493   62.6366 C   0  0  0  0  0  0  0  0  0  0  0  0
  -49.9767   59.7528   61.6939 C   0  0  0  0  0  0  0  0  0  0  0  0
  -50.0854   58.7063   60.6191 C   0  0  0  0  0  0  0  0  0  0  0  0
  -49.6419   57.3273   61.0359 C   0  0  0  0  0  0  0  0  0  0  0  0
  -48.5470   56.7759   60.1494 C   0  0  0  0  0  0  0  0  0  0  0  0
  -48.7819   56.9438   58.6741 C   0  0  0  0  0  0  0  0  0  0  0  0
  -47.5868   56.6522   57.8581 C   0  0  0  0  0  0  0  0  0  0  0  0
  -47.8799   56.4978   56.4346 C   0  0  0  0  0  0  0  0  0  0  0  0
  -41.2808   60.3654   63.5392 O   0  0  0  0  0  0  0  0  0  0  0  0
  -40.3547   61.3546   63.0374 C   0  0  0  0  0  0  0  0  0  0  0  0
  -39.2038   60.6047   62.4067 C   0  0  0  0  0  0  0  0  0  0  0  0
  -39.3169   60.6674   60.9849 O   0  0  0  0  0  0  0  0  0  0  0  0
  -39.2393   61.5897   60.6948 H   0  0  0  0  0  0  0  0  0  0  0  0
  -37.8309   61.0961   62.7968 C   0  0  0  0  0  0  0  0  0  0  0  0
  -37.9496   61.8824   63.9995 O   0  0  0  0  0  0  0  0  0  0  0  0
  -37.1647   61.4389   65.3097 P   0  0  0  0  0  0  0  0  0  0  0  0
  -38.1552   60.8365   66.2246 O   0  0  0  0  0  0  0  0  0  0  0  0
  -36.0121   60.6311   64.8645 O   0  0  0  0  0  0  0  0  0  0  0  0
  -36.3309   59.8229   64.4333 H   0  0  0  0  0  0  0  0  0  0  0  0
  -36.5841   62.7418   66.0041 O   0  0  0  0  0  0  0  0  0  0  0  0
  -35.1522   62.9195   66.1120 C   0  0  0  0  0  0  0  0  0  0  0  0
  -34.8426   64.2223   65.4101 C   0  0  0  0  0  0  0  0  0  0  0  0
  -34.2597   64.1091   64.0154 N   0  0  0  0  0  0  0  0  0  0  0  0
  -33.4474   62.8624   63.8703 C   0  0  0  0  0  0  0  0  0  0  0  0
  -33.3798   65.2869   63.7439 C   0  0  0  0  0  0  0  0  0  0  0  0
  -35.3676   64.0780   63.0100 C   0  0  0  0  0  0  0  0  0  0  0  0
 34 33  1  0  0  0
 34 35  1  0  0  0
 34 36  1  0  0  0
 34 37  1  0  0  0
 22 23  1  0  0  0
 22 25  1  0  0  0
 22 21  1  0  0  0
 23 24  1  0  0  0
 27 26  1  0  0  0
 27 28  2  0  0  0
 27 31  1  0  0  0
 27 29  1  0  0  0
 25 26  1  0  0  0
 32 33  1  0  0  0
 32 31  1  0  0  0
 29 30  1  0  0  0
 20 21  1  0  0  0
 20  2  1  0  0  0
  1  2  2  0  0  0
  2  3  1  0  0  0
  3  4  1  0  0  0
  4  5  1  0  0  0
  5  6  1  0  0  0
  6  7  1  0  0  0
  7  8  1  0  0  0
  8  9  1  0  0  0
  9 10  1  0  0  0
 10 11  2  0  0  0
 11 12  1  0  0  0
 12 13  1  0  0  0
 13 14  1  0  0  0
 14 15  1  0  0  0
 15 16  1  0  0  0
 16 17  1  0  0  0
 17 18  1  0  0  0
 18 19  1  0  0  0
M  CHG 1  28  -1
M  END
> <minimizedAffinity>
-8.00585

> <CNNscore>
0.7330795527

> <CNNaffinity>
6.4729857445

> <CNN_VS>
4.7452135086

> <CNNaffinity_variance>
0.5591040254

$$$$
/media/chris/experiments/cd1a-new-docking/inputs/ligands/4x6c_ligand.pdb


 37 36  0  0  0  0  0  0  0  0999 V2000
  -42.0693   58.2946   65.9555 O   0  0  0  0  0  0  0  0  0  0  0  0
  -42.5777   59.2882   65.5346 C   0  0  0  0  0  0  0  0  0  0  0  0
  -43.9803   59.3718   65.0275 C   0  0  0  0  0  0  0  0  0  0  0  0
  -44.5870   58.0111   64.7412 C   0  0  0  0  0  0  0  0  0  0  0  0
  -45.7213   57.6624   65.6804 C   0  0  0  0  0  0  0  0  0  0  0  0
  -46.3310   58.8466   66.3929 C   0  0  0  0  0  0  0  0  0  0  0  0
  -47.7456   59.1510   65.9703 C   0  0  0  0  0  0  0  0  0  0  0  0
  -48.3638   58.0274   65.1826 C   0  0  0  0  0  0  0  0  0  0  0  0
  -49.8589   58.0677   65.0680 C   0  0  0  0  0  0  0  0  0  0  0  0
  -50.4215   59.4130   65.2542 C   0  0  0  0  0  0  0  0  0  0  0  0
  -50.9648   60.1950   64.3475 C   0  0  0  0  0  0  0  0  0  0  0  0
  -51.1719   59.9140   62.9044 C   0  0  0  0  0  0  0  0  0  0  0  0
  -49.9971   60.2317   62.0021 C   0  0  0  0  0  0  0  0  0  0  0  0
  -49.8218   59.2238   60.8996 C   0  0  0  0  0  0  0  0  0  0  0  0
  -50.4376   57.8758   61.1750 C   0  0  0  0  0  0  0  0  0  0  0  0
  -50.0965   56.8529   60.1139 C   0  0  0  0  0  0  0  0  0  0  0  0
  -49.0494   57.2889   59.1274 C   0  0  0  0  0  0  0  0  0  0  0  0
  -47.7477   56.6222   59.3283 C   0  0  0  0  0  0  0  0  0  0  0  0
  -47.5879   55.4087   58.5296 C   0  0  0  0  0  0  0  0  0  0  0  0
  -41.9538   60.4634   65.4529 O   0  0  0  0  0  0  0  0  0  0  0  0
  -40.9671   60.6243   64.4096 C   0  0  0  0  0  0  0  0  0  0  0  0
  -39.9536   61.6283   64.9089 C   0  0  0  0  0  0  0  0  0  0  0  0
  -40.5542   62.4555   65.9055 O   0  0  0  0  0  0  0  0  0  0  0  0
  -40.8052   61.9118   66.6685 H   0  0  0  0  0  0  0  0  0  0  0  0
  -38.6922   61.0309   65.4834 C   0  0  0  0  0  0  0  0  0  0  0  0
  -37.7635   62.0985   65.7601 O   0  0  0  0  0  0  0  0  0  0  0  0
  -36.2023   61.7962   65.7848 P   0  0  0  0  0  0  0  0  0  0  0  0
  -35.6157   62.4514   64.5983 O   0  0  0  0  0  0  0  0  0  0  0  0
  -35.7157   62.1703   67.1273 O   0  0  0  0  0  0  0  0  0  0  0  0
  -35.8254   63.1253   67.2565 H   0  0  0  0  0  0  0  0  0  0  0  0
  -35.9985   60.2304   65.6314 O   0  0  0  0  0  0  0  0  0  0  0  0
  -35.4851   59.6921   64.3902 C   0  0  0  0  0  0  0  0  0  0  0  0
  -36.1546   58.3482   64.2135 C   0  0  0  0  0  0  0  0  0  0  0  0
  -37.1101   58.2252   63.0431 N   0  0  0  0  0  0  0  0  0  0  0  0
  -37.3368   59.5511   62.3907 C   0  0  0  0  0  0  0  0  0  0  0  0
  -38.4241   57.6981   63.5234 C   0  0  0  0  0  0  0  0  0  0  0  0
  -36.5413   57.2837   62.0285 C   0  0  0  0  0  0  0  0  0  0  0  0
 34 33  1  0  0  0
 34 35  1  0  0  0
 34 36  1  0  0  0
 34 37  1  0  0  0
 22 23  1  0  0  0
 22 25  1  0  0  0
 22 21  1  0  0  0
 23 24  1  0  0  0
 27 26  1  0  0  0
 27 28  2  0  0  0
 27 31  1  0  0  0
 27 29  1  0  0  0
 25 26  1  0  0  0
 32 33  1  0  0  0
 32 31  1  0  0  0
 29 30  1  0  0  0
 20 21  1  0  0  0
 20  2  1  0  0  0
  1  2  2  0  0  0
  2  3  1  0  0  0
  3  4  1  0  0  0
  4  5  1  0  0  0
  5  6  1  0  0  0
  6  7  1  0  0  0
  7  8  1  0  0  0
  8  9  1  0  0  0
  9 10  1  0  0  0
 10 11  2  0  0  0
 11 12  1  0  0  0
 12 13  1  0  0  0
 13 14  1  0  0  0
 14 15  1  0  0  0
 15 16  1  0  0  0
 16 17  1  0  0  0
 17 18  1  0  0  0
 18 19  1  0  0  0
M  CHG 1  28  -1
M  END
> <minimizedAffinity>
-8.14111

> <CNNscore>
0.7329927087

> <CNNaffinity>
6.8676862717

> <CNN_VS>
5.0339641571

> <CNNaffinity_variance>
0.3668107688

$$$$
