/media/chris/experiments/cd1a-new-docking/inputs/ligands/4x6c_ligand.pdb


 37 36  0  0  0  0  0  0  0  0999 V2000
  -42.0995   58.2025   66.3512 O   0  0  0  0  0  0  0  0  0  0  0  0
  -42.4406   58.8402   65.4025 C   0  0  0  0  0  0  0  0  0  0  0  0
  -43.8482   58.9426   64.9135 C   0  0  0  0  0  0  0  0  0  0  0  0
  -44.8209   58.1190   65.7363 C   0  0  0  0  0  0  0  0  0  0  0  0
  -46.0601   57.7242   64.9624 C   0  0  0  0  0  0  0  0  0  0  0  0
  -47.3520   58.2597   65.5334 C   0  0  0  0  0  0  0  0  0  0  0  0
  -48.5874   57.6189   64.9541 C   0  0  0  0  0  0  0  0  0  0  0  0
  -49.8387   58.3913   65.2747 C   0  0  0  0  0  0  0  0  0  0  0  0
  -49.8553   59.8152   64.8029 C   0  0  0  0  0  0  0  0  0  0  0  0
  -51.0058   60.1314   63.9443 C   0  0  0  0  0  0  0  0  0  0  0  0
  -51.1779   59.8252   62.6774 C   0  0  0  0  0  0  0  0  0  0  0  0
  -50.2652   59.0609   61.7901 C   0  0  0  0  0  0  0  0  0  0  0  0
  -50.6186   57.6011   61.5912 C   0  0  0  0  0  0  0  0  0  0  0  0
  -50.4817   57.1597   60.1600 C   0  0  0  0  0  0  0  0  0  0  0  0
  -49.1096   57.3578   59.5686 C   0  0  0  0  0  0  0  0  0  0  0  0
  -48.3498   56.0587   59.4138 C   0  0  0  0  0  0  0  0  0  0  0  0
  -47.0594   56.1667   58.6504 C   0  0  0  0  0  0  0  0  0  0  0  0
  -47.1331   57.1058   57.5138 C   0  0  0  0  0  0  0  0  0  0  0  0
  -47.5379   56.4703   56.2614 C   0  0  0  0  0  0  0  0  0  0  0  0
  -41.6027   59.5452   64.6424 O   0  0  0  0  0  0  0  0  0  0  0  0
  -42.0012   60.8847   64.2749 C   0  0  0  0  0  0  0  0  0  0  0  0
  -40.7786   61.7633   64.4084 C   0  0  0  0  0  0  0  0  0  0  0  0
  -40.5965   62.1207   65.7786 O   0  0  0  0  0  0  0  0  0  0  0  0
  -40.4225   61.3219   66.3007 H   0  0  0  0  0  0  0  0  0  0  0  0
  -39.4946   61.1526   63.9015 C   0  0  0  0  0  0  0  0  0  0  0  0
  -38.5803   61.0217   65.0087 O   0  0  0  0  0  0  0  0  0  0  0  0
  -37.1199   61.6419   64.9001 P   0  0  0  0  0  0  0  0  0  0  0  0
  -37.0107   62.2607   63.5635 O   0  0  0  0  0  0  0  0  0  0  0  0
  -36.9210   62.4797   66.0991 O   0  0  0  0  0  0  0  0  0  0  0  0
  -37.5487   63.2190   66.0847 H   0  0  0  0  0  0  0  0  0  0  0  0
  -36.0706   60.4545   64.9782 O   0  0  0  0  0  0  0  0  0  0  0  0
  -36.4975   59.1005   64.6984 C   0  0  0  0  0  0  0  0  0  0  0  0
  -36.2421   58.8822   63.2244 C   0  0  0  0  0  0  0  0  0  0  0  0
  -37.3382   58.1744   62.4529 N   0  0  0  0  0  0  0  0  0  0  0  0
  -38.4066   57.6739   63.3710 C   0  0  0  0  0  0  0  0  0  0  0  0
  -36.7588   57.0104   61.7147 C   0  0  0  0  0  0  0  0  0  0  0  0
  -37.9547   59.1231   61.4734 C   0  0  0  0  0  0  0  0  0  0  0  0
 34 33  1  0  0  0
 34 35  1  0  0  0
 34 36  1  0  0  0
 34 37  1  0  0  0
 22 23  1  0  0  0
 22 25  1  0  0  0
 22 21  1  0  0  0
 23 24  1  0  0  0
 27 26  1  0  0  0
 27 28  2  0  0  0
 27 31  1  0  0  0
 27 29  1  0  0  0
 25 26  1  0  0  0
 32 33  1  0  0  0
 32 31  1  0  0  0
 29 30  1  0  0  0
 20 21  1  0  0  0
 20  2  1  0  0  0
  1  2  2  0  0  0
  2  3  1  0  0  0
  3  4  1  0  0  0
  4  5  1  0  0  0
  5  6  1  0  0  0
  6  7  1  0  0  0
  7  8  1  0  0  0
  8  9  1  0  0  0
  9 10  1  0  0  0
 10 11  2  0  0  0
 11 12  1  0  0  0
 12 13  1  0  0  0
 13 14  1  0  0  0
 14 15  1  0  0  0
 15 16  1  0  0  0
 16 17  1  0  0  0
 17 18  1  0  0  0
 18 19  1  0  0  0
M  CHG 1  28  -1
M  END
> <minimizedAffinity>
-8.31280

> <CNNscore>
0.8413213491

> <CNNaffinity>
7.1721320152

> <CNN_VS>
6.0340676308

> <CNNaffinity_variance>
0.4621171951

$$$$
/media/chris/experiments/cd1a-new-docking/inputs/ligands/4x6c_ligand.pdb


 37 36  0  0  0  0  0  0  0  0999 V2000
  -42.0556   57.5781   66.4585 O   0  0  0  0  0  0  0  0  0  0  0  0
  -42.3866   58.3815   65.6412 C   0  0  0  0  0  0  0  0  0  0  0  0
  -43.7555   58.4730   65.0505 C   0  0  0  0  0  0  0  0  0  0  0  0
  -44.6073   57.2519   65.3413 C   0  0  0  0  0  0  0  0  0  0  0  0
  -46.0440   57.5995   65.6662 C   0  0  0  0  0  0  0  0  0  0  0  0
  -46.3175   59.0799   65.7899 C   0  0  0  0  0  0  0  0  0  0  0  0
  -47.5742   59.5291   65.0892 C   0  0  0  0  0  0  0  0  0  0  0  0
  -48.3366   58.3804   64.4855 C   0  0  0  0  0  0  0  0  0  0  0  0
  -49.7427   58.2101   64.9797 C   0  0  0  0  0  0  0  0  0  0  0  0
  -50.4617   59.4821   65.1413 C   0  0  0  0  0  0  0  0  0  0  0  0
  -51.0488   60.2031   64.2118 C   0  0  0  0  0  0  0  0  0  0  0  0
  -51.1580   59.9091   62.7606 C   0  0  0  0  0  0  0  0  0  0  0  0
  -49.9781   60.3437   61.9154 C   0  0  0  0  0  0  0  0  0  0  0  0
  -49.7682   59.4638   60.7139 C   0  0  0  0  0  0  0  0  0  0  0  0
  -49.7528   57.9862   61.0108 C   0  0  0  0  0  0  0  0  0  0  0  0
  -49.7510   57.1407   59.7562 C   0  0  0  0  0  0  0  0  0  0  0  0
  -48.4063   56.5980   59.3601 C   0  0  0  0  0  0  0  0  0  0  0  0
  -48.1818   56.6084   57.9011 C   0  0  0  0  0  0  0  0  0  0  0  0
  -47.1301   55.6899   57.4693 C   0  0  0  0  0  0  0  0  0  0  0  0
  -41.5699   59.3064   65.1369 O   0  0  0  0  0  0  0  0  0  0  0  0
  -41.0979   60.3390   66.0308 C   0  0  0  0  0  0  0  0  0  0  0  0
  -40.7394   61.5340   65.1777 C   0  0  0  0  0  0  0  0  0  0  0  0
  -40.5126   62.6669   66.0164 O   0  0  0  0  0  0  0  0  0  0  0  0
  -39.7493   62.4966   66.5902 H   0  0  0  0  0  0  0  0  0  0  0  0
  -39.5307   61.3478   64.2929 C   0  0  0  0  0  0  0  0  0  0  0  0
  -39.9676   61.3202   62.9191 O   0  0  0  0  0  0  0  0  0  0  0  0
  -39.0547   60.6259   61.8174 P   0  0  0  0  0  0  0  0  0  0  0  0
  -39.8249   60.6209   60.5573 O   0  0  0  0  0  0  0  0  0  0  0  0
  -37.7449   61.3057   61.8573 O   0  0  0  0  0  0  0  0  0  0  0  0
  -37.8542   62.2335   61.5965 H   0  0  0  0  0  0  0  0  0  0  0  0
  -38.8143   59.1189   62.2514 O   0  0  0  0  0  0  0  0  0  0  0  0
  -37.6877   58.3882   61.7122 C   0  0  0  0  0  0  0  0  0  0  0  0
  -37.2676   57.4185   62.7933 C   0  0  0  0  0  0  0  0  0  0  0  0
  -35.9263   57.6850   63.4471 N   0  0  0  0  0  0  0  0  0  0  0  0
  -35.6981   59.1509   63.6309 C   0  0  0  0  0  0  0  0  0  0  0  0
  -34.8330   57.1353   62.5881 C   0  0  0  0  0  0  0  0  0  0  0  0
  -35.8815   57.0219   64.7880 C   0  0  0  0  0  0  0  0  0  0  0  0
 34 33  1  0  0  0
 34 35  1  0  0  0
 34 36  1  0  0  0
 34 37  1  0  0  0
 22 23  1  0  0  0
 22 25  1  0  0  0
 22 21  1  0  0  0
 23 24  1  0  0  0
 27 26  1  0  0  0
 27 28  2  0  0  0
 27 31  1  0  0  0
 27 29  1  0  0  0
 25 26  1  0  0  0
 32 33  1  0  0  0
 32 31  1  0  0  0
 29 30  1  0  0  0
 20 21  1  0  0  0
 20  2  1  0  0  0
  1  2  2  0  0  0
  2  3  1  0  0  0
  3  4  1  0  0  0
  4  5  1  0  0  0
  5  6  1  0  0  0
  6  7  1  0  0  0
  7  8  1  0  0  0
  8  9  1  0  0  0
  9 10  1  0  0  0
 10 11  2  0  0  0
 11 12  1  0  0  0
 12 13  1  0  0  0
 13 14  1  0  0  0
 14 15  1  0  0  0
 15 16  1  0  0  0
 16 17  1  0  0  0
 17 18  1  0  0  0
 18 19  1  0  0  0
M  CHG 1  28  -1
M  END
> <minimizedAffinity>
-8.41266

> <CNNscore>
0.8114735484

> <CNNaffinity>
6.9623746872

> <CNN_VS>
5.6497826576

> <CNNaffinity_variance>
0.5167551041

$$$$
/media/chris/experiments/cd1a-new-docking/inputs/ligands/4x6c_ligand.pdb


 37 36  0  0  0  0  0  0  0  0999 V2000
  -42.5036   57.4642   65.8180 O   0  0  0  0  0  0  0  0  0  0  0  0
  -42.6067   58.6336   65.6060 C   0  0  0  0  0  0  0  0  0  0  0  0
  -43.7309   59.4866   66.0958 C   0  0  0  0  0  0  0  0  0  0  0  0
  -44.8355   59.6546   65.0696 C   0  0  0  0  0  0  0  0  0  0  0  0
  -45.7249   58.4353   64.9564 C   0  0  0  0  0  0  0  0  0  0  0  0
  -46.8539   58.3886   65.9590 C   0  0  0  0  0  0  0  0  0  0  0  0
  -48.2225   58.3000   65.3334 C   0  0  0  0  0  0  0  0  0  0  0  0
  -48.9192   59.6333   65.2861 C   0  0  0  0  0  0  0  0  0  0  0  0
  -50.4149   59.5751   65.1872 C   0  0  0  0  0  0  0  0  0  0  0  0
  -50.9350   60.0859   63.9106 C   0  0  0  0  0  0  0  0  0  0  0  0
  -50.9366   59.4869   62.7403 C   0  0  0  0  0  0  0  0  0  0  0  0
  -50.4343   58.1298   62.4079 C   0  0  0  0  0  0  0  0  0  0  0  0
  -51.0412   57.4927   61.1746 C   0  0  0  0  0  0  0  0  0  0  0  0
  -50.1860   57.6669   59.9497 C   0  0  0  0  0  0  0  0  0  0  0  0
  -49.3021   56.4897   59.6264 C   0  0  0  0  0  0  0  0  0  0  0  0
  -48.2219   56.8313   58.6239 C   0  0  0  0  0  0  0  0  0  0  0  0
  -47.2293   55.7328   58.3633 C   0  0  0  0  0  0  0  0  0  0  0  0
  -47.0726   55.4188   56.9294 C   0  0  0  0  0  0  0  0  0  0  0  0
  -47.5706   56.4722   56.0470 C   0  0  0  0  0  0  0  0  0  0  0  0
  -41.7293   59.3382   64.8915 O   0  0  0  0  0  0  0  0  0  0  0  0
  -40.9381   60.3248   65.5906 C   0  0  0  0  0  0  0  0  0  0  0  0
  -39.4874   60.0193   65.2965 C   0  0  0  0  0  0  0  0  0  0  0  0
  -39.3800   59.4155   64.0073 O   0  0  0  0  0  0  0  0  0  0  0  0
  -39.6738   60.0447   63.3301 H   0  0  0  0  0  0  0  0  0  0  0  0
  -38.5617   61.2106   65.3423 C   0  0  0  0  0  0  0  0  0  0  0  0
  -37.5675   60.9803   66.3609 O   0  0  0  0  0  0  0  0  0  0  0  0
  -36.2121   61.8120   66.3393 P   0  0  0  0  0  0  0  0  0  0  0  0
  -36.4132   62.9433   65.4114 O   0  0  0  0  0  0  0  0  0  0  0  0
  -35.8581   62.0890   67.7454 O   0  0  0  0  0  0  0  0  0  0  0  0
  -36.5366   62.6561   68.1438 H   0  0  0  0  0  0  0  0  0  0  0  0
  -35.0716   60.8847   65.7424 O   0  0  0  0  0  0  0  0  0  0  0  0
  -35.4254   59.6434   65.0884 C   0  0  0  0  0  0  0  0  0  0  0  0
  -34.7162   59.6620   63.7534 C   0  0  0  0  0  0  0  0  0  0  0  0
  -33.5010   58.7646   63.6285 N   0  0  0  0  0  0  0  0  0  0  0  0
  -32.3426   59.5045   63.0408 C   0  0  0  0  0  0  0  0  0  0  0  0
  -33.8251   57.6039   62.7436 C   0  0  0  0  0  0  0  0  0  0  0  0
  -33.1095   58.2597   64.9818 C   0  0  0  0  0  0  0  0  0  0  0  0
 34 33  1  0  0  0
 34 35  1  0  0  0
 34 36  1  0  0  0
 34 37  1  0  0  0
 22 23  1  0  0  0
 22 25  1  0  0  0
 22 21  1  0  0  0
 23 24  1  0  0  0
 27 26  1  0  0  0
 27 28  2  0  0  0
 27 31  1  0  0  0
 27 29  1  0  0  0
 25 26  1  0  0  0
 32 33  1  0  0  0
 32 31  1  0  0  0
 29 30  1  0  0  0
 20 21  1  0  0  0
 20  2  1  0  0  0
  1  2  2  0  0  0
  2  3  1  0  0  0
  3  4  1  0  0  0
  4  5  1  0  0  0
  5  6  1  0  0  0
  6  7  1  0  0  0
  7  8  1  0  0  0
  8  9  1  0  0  0
  9 10  1  0  0  0
 10 11  2  0  0  0
 11 12  1  0  0  0
 12 13  1  0  0  0
 13 14  1  0  0  0
 14 15  1  0  0  0
 15 16  1  0  0  0
 16 17  1  0  0  0
 17 18  1  0  0  0
 18 19  1  0  0  0
M  CHG 1  28  -1
M  END
> <minimizedAffinity>
-8.09018

> <CNNscore>
0.7789863944

> <CNNaffinity>
6.5813469887

> <CNN_VS>
5.1267795563

> <CNNaffinity_variance>
0.6132452488

$$$$
/media/chris/experiments/cd1a-new-docking/inputs/ligands/4x6c_ligand.pdb


 37 36  0  0  0  0  0  0  0  0999 V2000
  -41.8094   58.3023   65.3916 O   0  0  0  0  0  0  0  0  0  0  0  0
  -42.4463   59.3110   65.3939 C   0  0  0  0  0  0  0  0  0  0  0  0
  -43.9367   59.3705   65.4723 C   0  0  0  0  0  0  0  0  0  0  0  0
  -44.6135   58.2407   64.7193 C   0  0  0  0  0  0  0  0  0  0  0  0
  -45.3467   57.2809   65.6313 C   0  0  0  0  0  0  0  0  0  0  0  0
  -46.6772   57.7886   66.1351 C   0  0  0  0  0  0  0  0  0  0  0  0
  -47.4258   58.6339   65.1364 C   0  0  0  0  0  0  0  0  0  0  0  0
  -48.5325   57.8738   64.4563 C   0  0  0  0  0  0  0  0  0  0  0  0
  -49.8895   58.0169   65.0794 C   0  0  0  0  0  0  0  0  0  0  0  0
  -50.3358   59.4132   65.1900 C   0  0  0  0  0  0  0  0  0  0  0  0
  -50.8242   60.1835   64.2432 C   0  0  0  0  0  0  0  0  0  0  0  0
  -51.0734   59.8370   62.8211 C   0  0  0  0  0  0  0  0  0  0  0  0
  -49.9527   60.1766   61.8599 C   0  0  0  0  0  0  0  0  0  0  0  0
  -49.7746   59.1398   60.7851 C   0  0  0  0  0  0  0  0  0  0  0  0
  -50.2218   57.7525   61.1684 C   0  0  0  0  0  0  0  0  0  0  0  0
  -49.6123   56.6815   60.2907 C   0  0  0  0  0  0  0  0  0  0  0  0
  -49.3689   57.0933   58.8656 C   0  0  0  0  0  0  0  0  0  0  0  0
  -47.9628   56.9325   58.4459 C   0  0  0  0  0  0  0  0  0  0  0  0
  -47.5340   55.5370   58.3764 C   0  0  0  0  0  0  0  0  0  0  0  0
  -41.9082   60.5281   65.3182 O   0  0  0  0  0  0  0  0  0  0  0  0
  -41.1792   60.8622   64.1161 C   0  0  0  0  0  0  0  0  0  0  0  0
  -39.9024   61.5464   64.5475 C   0  0  0  0  0  0  0  0  0  0  0  0
  -40.1140   62.2057   65.7960 O   0  0  0  0  0  0  0  0  0  0  0  0
  -40.3203   61.5476   66.4782 H   0  0  0  0  0  0  0  0  0  0  0  0
  -38.7059   60.6368   64.6866 C   0  0  0  0  0  0  0  0  0  0  0  0
  -37.5762   61.2634   64.0461 O   0  0  0  0  0  0  0  0  0  0  0  0
  -36.4423   61.9370   64.9348 P   0  0  0  0  0  0  0  0  0  0  0  0
  -35.6803   62.8424   64.0511 O   0  0  0  0  0  0  0  0  0  0  0  0
  -37.1085   62.4908   66.1301 O   0  0  0  0  0  0  0  0  0  0  0  0
  -37.7197   63.1949   65.8624 H   0  0  0  0  0  0  0  0  0  0  0  0
  -35.4595   60.7952   65.4324 O   0  0  0  0  0  0  0  0  0  0  0  0
  -34.1242   60.7080   64.8817 C   0  0  0  0  0  0  0  0  0  0  0  0
  -34.1962   59.6710   63.7839 C   0  0  0  0  0  0  0  0  0  0  0  0
  -32.8910   58.9932   63.4170 N   0  0  0  0  0  0  0  0  0  0  0  0
  -32.3615   58.1883   64.5601 C   0  0  0  0  0  0  0  0  0  0  0  0
  -31.8758   60.0279   63.0505 C   0  0  0  0  0  0  0  0  0  0  0  0
  -33.1101   58.0815   62.2506 C   0  0  0  0  0  0  0  0  0  0  0  0
 34 33  1  0  0  0
 34 35  1  0  0  0
 34 36  1  0  0  0
 34 37  1  0  0  0
 22 23  1  0  0  0
 22 25  1  0  0  0
 22 21  1  0  0  0
 23 24  1  0  0  0
 27 26  1  0  0  0
 27 28  2  0  0  0
 27 31  1  0  0  0
 27 29  1  0  0  0
 25 26  1  0  0  0
 32 33  1  0  0  0
 32 31  1  0  0  0
 29 30  1  0  0  0
 20 21  1  0  0  0
 20  2  1  0  0  0
  1  2  2  0  0  0
  2  3  1  0  0  0
  3  4  1  0  0  0
  4  5  1  0  0  0
  5  6  1  0  0  0
  6  7  1  0  0  0
  7  8  1  0  0  0
  8  9  1  0  0  0
  9 10  1  0  0  0
 10 11  2  0  0  0
 11 12  1  0  0  0
 12 13  1  0  0  0
 13 14  1  0  0  0
 14 15  1  0  0  0
 15 16  1  0  0  0
 16 17  1  0  0  0
 17 18  1  0  0  0
 18 19  1  0  0  0
M  CHG 1  28  -1
M  END
> <minimizedAffinity>
-8.02883

> <CNNscore>
0.7787812352

> <CNNaffinity>
6.5411405563

> <CNN_VS>
5.0941176414

> <CNNaffinity_variance>
0.2665618062

$$$$
/media/chris/experiments/cd1a-new-docking/inputs/ligands/4x6c_ligand.pdb


 37 36  0  0  0  0  0  0  0  0999 V2000
  -41.8025   60.5845   62.7893 O   0  0  0  0  0  0  0  0  0  0  0  0
  -41.2046   60.6083   63.8214 C   0  0  0  0  0  0  0  0  0  0  0  0
  -41.4822   59.7089   64.9811 C   0  0  0  0  0  0  0  0  0  0  0  0
  -42.8428   59.0428   64.8997 C   0  0  0  0  0  0  0  0  0  0  0  0
  -43.9658   59.9361   65.3806 C   0  0  0  0  0  0  0  0  0  0  0  0
  -45.1395   59.1984   65.9807 C   0  0  0  0  0  0  0  0  0  0  0  0
  -45.4480   57.8878   65.3027 C   0  0  0  0  0  0  0  0  0  0  0  0
  -46.7066   57.9497   64.4797 C   0  0  0  0  0  0  0  0  0  0  0  0
  -47.7111   58.9751   64.9154 C   0  0  0  0  0  0  0  0  0  0  0  0
  -49.0738   58.4386   65.0431 C   0  0  0  0  0  0  0  0  0  0  0  0
  -50.0011   58.3567   64.1147 C   0  0  0  0  0  0  0  0  0  0  0  0
  -49.9060   58.7637   62.6900 C   0  0  0  0  0  0  0  0  0  0  0  0
  -49.4698   57.6776   61.7280 C   0  0  0  0  0  0  0  0  0  0  0  0
  -50.2390   57.7023   60.4359 C   0  0  0  0  0  0  0  0  0  0  0  0
  -49.5021   57.1274   59.2535 C   0  0  0  0  0  0  0  0  0  0  0  0
  -48.5350   56.0325   59.6471 C   0  0  0  0  0  0  0  0  0  0  0  0
  -47.4981   55.7006   58.6106 C   0  0  0  0  0  0  0  0  0  0  0  0
  -47.2061   56.8248   57.6995 C   0  0  0  0  0  0  0  0  0  0  0  0
  -47.2938   56.4638   56.2859 C   0  0  0  0  0  0  0  0  0  0  0  0
  -40.2067   61.4530   64.0812 O   0  0  0  0  0  0  0  0  0  0  0  0
  -39.6990   61.4907   65.4335 C   0  0  0  0  0  0  0  0  0  0  0  0
  -38.1905   61.5104   65.3404 C   0  0  0  0  0  0  0  0  0  0  0  0
  -37.6359   60.8026   66.4492 O   0  0  0  0  0  0  0  0  0  0  0  0
  -37.9044   59.8715   66.4055 H   0  0  0  0  0  0  0  0  0  0  0  0
  -37.6213   60.9263   64.0703 C   0  0  0  0  0  0  0  0  0  0  0  0
  -37.3761   59.5211   64.2812 O   0  0  0  0  0  0  0  0  0  0  0  0
  -37.6288   58.4922   63.0951 P   0  0  0  0  0  0  0  0  0  0  0  0
  -38.7478   57.6214   63.5085 O   0  0  0  0  0  0  0  0  0  0  0  0
  -37.7556   59.2881   61.8584 O   0  0  0  0  0  0  0  0  0  0  0  0
  -38.5399   59.8556   61.9183 H   0  0  0  0  0  0  0  0  0  0  0  0
  -36.3347   57.5876   62.9401 O   0  0  0  0  0  0  0  0  0  0  0  0
  -35.1685   58.1140   62.2642 C   0  0  0  0  0  0  0  0  0  0  0  0
  -33.9747   57.5901   63.0298 C   0  0  0  0  0  0  0  0  0  0  0  0
  -33.2806   58.5785   63.9457 N   0  0  0  0  0  0  0  0  0  0  0  0
  -33.4312   58.1824   65.3793 C   0  0  0  0  0  0  0  0  0  0  0  0
  -33.8775   59.9367   63.7601 C   0  0  0  0  0  0  0  0  0  0  0  0
  -31.8222   58.6305   63.6141 C   0  0  0  0  0  0  0  0  0  0  0  0
 34 33  1  0  0  0
 34 35  1  0  0  0
 34 36  1  0  0  0
 34 37  1  0  0  0
 22 23  1  0  0  0
 22 25  1  0  0  0
 22 21  1  0  0  0
 23 24  1  0  0  0
 27 26  1  0  0  0
 27 28  2  0  0  0
 27 31  1  0  0  0
 27 29  1  0  0  0
 25 26  1  0  0  0
 32 33  1  0  0  0
 32 31  1  0  0  0
 29 30  1  0  0  0
 20 21  1  0  0  0
 20  2  1  0  0  0
  1  2  2  0  0  0
  2  3  1  0  0  0
  3  4  1  0  0  0
  4  5  1  0  0  0
  5  6  1  0  0  0
  6  7  1  0  0  0
  7  8  1  0  0  0
  8  9  1  0  0  0
  9 10  1  0  0  0
 10 11  2  0  0  0
 11 12  1  0  0  0
 12 13  1  0  0  0
 13 14  1  0  0  0
 14 15  1  0  0  0
 15 16  1  0  0  0
 16 17  1  0  0  0
 17 18  1  0  0  0
 18 19  1  0  0  0
M  CHG 1  28  -1
M  END
> <minimizedAffinity>
-7.35808

> <CNNscore>
0.7550075650

> <CNNaffinity>
6.7014265060

> <CNN_VS>
5.0596275330

> <CNNaffinity_variance>
0.7117395997

$$$$
/media/chris/experiments/cd1a-new-docking/inputs/ligands/4x6c_ligand.pdb


 37 36  0  0  0  0  0  0  0  0999 V2000
  -42.9860   57.0380   65.8465 O   0  0  0  0  0  0  0  0  0  0  0  0
  -42.7667   58.2076   65.7615 C   0  0  0  0  0  0  0  0  0  0  0  0
  -43.7332   59.2799   66.1452 C   0  0  0  0  0  0  0  0  0  0  0  0
  -44.7731   59.5489   65.0739 C   0  0  0  0  0  0  0  0  0  0  0  0
  -45.8306   58.4691   64.9948 C   0  0  0  0  0  0  0  0  0  0  0  0
  -46.9383   58.6018   66.0132 C   0  0  0  0  0  0  0  0  0  0  0  0
  -48.3203   58.4222   65.4387 C   0  0  0  0  0  0  0  0  0  0  0  0
  -49.0411   59.7310   65.2575 C   0  0  0  0  0  0  0  0  0  0  0  0
  -50.5203   59.6257   65.0314 C   0  0  0  0  0  0  0  0  0  0  0  0
  -50.9434   60.1067   63.7083 C   0  0  0  0  0  0  0  0  0  0  0  0
  -50.9289   59.4532   62.5675 C   0  0  0  0  0  0  0  0  0  0  0  0
  -50.5028   58.0522   62.3226 C   0  0  0  0  0  0  0  0  0  0  0  0
  -51.1041   57.3910   61.0992 C   0  0  0  0  0  0  0  0  0  0  0  0
  -50.1797   57.4132   59.9131 C   0  0  0  0  0  0  0  0  0  0  0  0
  -49.1617   56.3019   59.8875 C   0  0  0  0  0  0  0  0  0  0  0  0
  -47.9371   56.6536   59.0717 C   0  0  0  0  0  0  0  0  0  0  0  0
  -47.2697   55.4881   58.3965 C   0  0  0  0  0  0  0  0  0  0  0  0
  -46.8595   55.7773   57.0083 C   0  0  0  0  0  0  0  0  0  0  0  0
  -47.9480   56.2849   56.1754 C   0  0  0  0  0  0  0  0  0  0  0  0
  -41.6237   58.7164   65.3018 O   0  0  0  0  0  0  0  0  0  0  0  0
  -41.1736   59.9668   65.8692 C   0  0  0  0  0  0  0  0  0  0  0  0
  -39.6671   59.9912   65.7494 C   0  0  0  0  0  0  0  0  0  0  0  0
  -39.2514   59.0331   64.7760 O   0  0  0  0  0  0  0  0  0  0  0  0
  -39.6030   59.2818   63.9069 H   0  0  0  0  0  0  0  0  0  0  0  0
  -39.0773   61.3307   65.3804 C   0  0  0  0  0  0  0  0  0  0  0  0
  -37.7450   61.4114   65.9258 O   0  0  0  0  0  0  0  0  0  0  0  0
  -36.5059   60.9393   65.0477 P   0  0  0  0  0  0  0  0  0  0  0  0
  -36.3562   59.4850   65.2568 O   0  0  0  0  0  0  0  0  0  0  0  0
  -36.7311   61.4502   63.6811 O   0  0  0  0  0  0  0  0  0  0  0  0
  -37.5233   61.0341   63.3069 H   0  0  0  0  0  0  0  0  0  0  0  0
  -35.2031   61.6520   65.6061 O   0  0  0  0  0  0  0  0  0  0  0  0
  -35.3310   62.7612   66.5265 C   0  0  0  0  0  0  0  0  0  0  0  0
  -33.9377   63.3243   66.6924 C   0  0  0  0  0  0  0  0  0  0  0  0
  -33.4670   64.2752   65.6099 N   0  0  0  0  0  0  0  0  0  0  0  0
  -34.6198   64.9910   64.9826 C   0  0  0  0  0  0  0  0  0  0  0  0
  -32.7465   63.5075   64.5483 C   0  0  0  0  0  0  0  0  0  0  0  0
  -32.5390   65.2890   66.2021 C   0  0  0  0  0  0  0  0  0  0  0  0
 34 33  1  0  0  0
 34 35  1  0  0  0
 34 36  1  0  0  0
 34 37  1  0  0  0
 22 23  1  0  0  0
 22 25  1  0  0  0
 22 21  1  0  0  0
 23 24  1  0  0  0
 27 26  1  0  0  0
 27 28  2  0  0  0
 27 31  1  0  0  0
 27 29  1  0  0  0
 25 26  1  0  0  0
 32 33  1  0  0  0
 32 31  1  0  0  0
 29 30  1  0  0  0
 20 21  1  0  0  0
 20  2  1  0  0  0
  1  2  2  0  0  0
  2  3  1  0  0  0
  3  4  1  0  0  0
  4  5  1  0  0  0
  5  6  1  0  0  0
  6  7  1  0  0  0
  7  8  1  0  0  0
  8  9  1  0  0  0
  9 10  1  0  0  0
 10 11  2  0  0  0
 11 12  1  0  0  0
 12 13  1  0  0  0
 13 14  1  0  0  0
 14 15  1  0  0  0
 15 16  1  0  0  0
 16 17  1  0  0  0
 17 18  1  0  0  0
 18 19  1  0  0  0
M  CHG 1  28  -1
M  END
> <minimizedAffinity>
-7.89616

> <CNNscore>
0.6767877936

> <CNNaffinity>
6.2994337082

> <CNN_VS>
4.2633800507

> <CNNaffinity_variance>
0.6988304853

$$$$
/media/chris/experiments/cd1a-new-docking/inputs/ligands/4x6c_ligand.pdb


 37 36  0  0  0  0  0  0  0  0999 V2000
  -42.5351   57.8743   66.0798 O   0  0  0  0  0  0  0  0  0  0  0  0
  -42.4994   58.8971   65.4670 C   0  0  0  0  0  0  0  0  0  0  0  0
  -43.7030   59.6248   64.9641 C   0  0  0  0  0  0  0  0  0  0  0  0
  -44.9787   59.2214   65.6791 C   0  0  0  0  0  0  0  0  0  0  0  0
  -45.7647   58.1661   64.9314 C   0  0  0  0  0  0  0  0  0  0  0  0
  -47.1407   57.8952   65.4927 C   0  0  0  0  0  0  0  0  0  0  0  0
  -48.2265   57.8432   64.4484 C   0  0  0  0  0  0  0  0  0  0  0  0
  -49.5838   58.1618   65.0153 C   0  0  0  0  0  0  0  0  0  0  0  0
  -49.9323   59.6198   65.0711 C   0  0  0  0  0  0  0  0  0  0  0  0
  -51.0223   59.9939   64.1584 C   0  0  0  0  0  0  0  0  0  0  0  0
  -50.9434   60.2735   62.8762 C   0  0  0  0  0  0  0  0  0  0  0  0
  -49.7367   60.2621   62.0111 C   0  0  0  0  0  0  0  0  0  0  0  0
  -49.7883   59.3139   60.8306 C   0  0  0  0  0  0  0  0  0  0  0  0
  -50.4832   58.0200   61.1542 C   0  0  0  0  0  0  0  0  0  0  0  0
  -50.2213   56.9031   60.1766 C   0  0  0  0  0  0  0  0  0  0  0  0
  -48.8619   56.2678   60.3697 C   0  0  0  0  0  0  0  0  0  0  0  0
  -48.2082   55.7749   59.1090 C   0  0  0  0  0  0  0  0  0  0  0  0
  -48.0512   56.8272   58.0856 C   0  0  0  0  0  0  0  0  0  0  0  0
  -48.1339   56.3221   56.7166 C   0  0  0  0  0  0  0  0  0  0  0  0
  -41.3710   59.5271   65.1405 O   0  0  0  0  0  0  0  0  0  0  0  0
  -41.4718   60.6544   64.2420 C   0  0  0  0  0  0  0  0  0  0  0  0
  -40.4266   61.6583   64.6712 C   0  0  0  0  0  0  0  0  0  0  0  0
  -40.7014   62.0914   66.0035 O   0  0  0  0  0  0  0  0  0  0  0  0
  -40.6279   61.3379   66.6100 H   0  0  0  0  0  0  0  0  0  0  0  0
  -39.0026   61.1607   64.6169 C   0  0  0  0  0  0  0  0  0  0  0  0
  -38.2364   61.8517   65.6241 O   0  0  0  0  0  0  0  0  0  0  0  0
  -36.6479   61.8431   65.5473 P   0  0  0  0  0  0  0  0  0  0  0  0
  -36.1479   61.7581   66.9344 O   0  0  0  0  0  0  0  0  0  0  0  0
  -36.2723   60.7918   64.5815 O   0  0  0  0  0  0  0  0  0  0  0  0
  -36.5480   59.9265   64.9221 H   0  0  0  0  0  0  0  0  0  0  0  0
  -36.1740   63.2297   64.9391 O   0  0  0  0  0  0  0  0  0  0  0  0
  -35.5505   63.2647   63.6338 C   0  0  0  0  0  0  0  0  0  0  0  0
  -34.0609   63.3144   63.8878 C   0  0  0  0  0  0  0  0  0  0  0  0
  -33.4075   64.6773   63.7728 N   0  0  0  0  0  0  0  0  0  0  0  0
  -33.1864   65.2845   65.1209 C   0  0  0  0  0  0  0  0  0  0  0  0
  -34.2866   65.5880   62.9770 C   0  0  0  0  0  0  0  0  0  0  0  0
  -32.0849   64.5427   63.0858 C   0  0  0  0  0  0  0  0  0  0  0  0
 34 33  1  0  0  0
 34 35  1  0  0  0
 34 36  1  0  0  0
 34 37  1  0  0  0
 22 23  1  0  0  0
 22 25  1  0  0  0
 22 21  1  0  0  0
 23 24  1  0  0  0
 27 26  1  0  0  0
 27 28  2  0  0  0
 27 31  1  0  0  0
 27 29  1  0  0  0
 25 26  1  0  0  0
 32 33  1  0  0  0
 32 31  1  0  0  0
 29 30  1  0  0  0
 20 21  1  0  0  0
 20  2  1  0  0  0
  1  2  2  0  0  0
  2  3  1  0  0  0
  3  4  1  0  0  0
  4  5  1  0  0  0
  5  6  1  0  0  0
  6  7  1  0  0  0
  7  8  1  0  0  0
  8  9  1  0  0  0
  9 10  1  0  0  0
 10 11  2  0  0  0
 11 12  1  0  0  0
 12 13  1  0  0  0
 13 14  1  0  0  0
 14 15  1  0  0  0
 15 16  1  0  0  0
 16 17  1  0  0  0
 17 18  1  0  0  0
 18 19  1  0  0  0
M  CHG 1  28  -1
M  END
> <minimizedAffinity>
-8.05914

> <CNNscore>
0.6700134873

> <CNNaffinity>
6.2891530991

> <CNN_VS>
4.2138175964

> <CNNaffinity_variance>
0.3576672077

$$$$
/media/chris/experiments/cd1a-new-docking/inputs/ligands/4x6c_ligand.pdb


 37 36  0  0  0  0  0  0  0  0999 V2000
  -40.6319   60.3566   65.5261 O   0  0  0  0  0  0  0  0  0  0  0  0
  -41.5361   60.1865   64.7667 C   0  0  0  0  0  0  0  0  0  0  0  0
  -42.8822   59.6692   65.1560 C   0  0  0  0  0  0  0  0  0  0  0  0
  -42.8463   58.2302   65.6348 C   0  0  0  0  0  0  0  0  0  0  0  0
  -44.2092   57.5722   65.6262 C   0  0  0  0  0  0  0  0  0  0  0  0
  -45.0585   57.9069   64.4227 C   0  0  0  0  0  0  0  0  0  0  0  0
  -46.4801   58.2756   64.7623 C   0  0  0  0  0  0  0  0  0  0  0  0
  -46.5872   59.6474   65.3721 C   0  0  0  0  0  0  0  0  0  0  0  0
  -47.8899   60.3547   65.1416 C   0  0  0  0  0  0  0  0  0  0  0  0
  -49.0561   59.5995   65.6220 C   0  0  0  0  0  0  0  0  0  0  0  0
  -50.2806   59.6118   65.1436 C   0  0  0  0  0  0  0  0  0  0  0  0
  -50.7992   60.3741   63.9798 C   0  0  0  0  0  0  0  0  0  0  0  0
  -51.1145   59.5508   62.7477 C   0  0  0  0  0  0  0  0  0  0  0  0
  -50.4099   58.2221   62.7405 C   0  0  0  0  0  0  0  0  0  0  0  0
  -49.4808   58.0087   61.5730 C   0  0  0  0  0  0  0  0  0  0  0  0
  -50.0611   57.0787   60.5303 C   0  0  0  0  0  0  0  0  0  0  0  0
  -49.6339   57.3654   59.1178 C   0  0  0  0  0  0  0  0  0  0  0  0
  -48.5644   56.4670   58.6401 C   0  0  0  0  0  0  0  0  0  0  0  0
  -47.5248   57.1564   57.8784 C   0  0  0  0  0  0  0  0  0  0  0  0
  -41.4616   60.4301   63.4583 O   0  0  0  0  0  0  0  0  0  0  0  0
  -40.4590   61.3692   63.0101 C   0  0  0  0  0  0  0  0  0  0  0  0
  -39.4214   60.5791   62.2461 C   0  0  0  0  0  0  0  0  0  0  0  0
  -39.6533   60.7194   60.8444 O   0  0  0  0  0  0  0  0  0  0  0  0
  -39.5382   61.6481   60.5891 H   0  0  0  0  0  0  0  0  0  0  0  0
  -37.9895   60.9612   62.5320 C   0  0  0  0  0  0  0  0  0  0  0  0
  -37.9614   61.7822   63.7170 O   0  0  0  0  0  0  0  0  0  0  0  0
  -37.1125   61.3144   64.9778 P   0  0  0  0  0  0  0  0  0  0  0  0
  -37.1215   62.4311   65.9443 O   0  0  0  0  0  0  0  0  0  0  0  0
  -37.6475   60.0018   65.3902 O   0  0  0  0  0  0  0  0  0  0  0  0
  -38.5659   60.1051   65.6846 H   0  0  0  0  0  0  0  0  0  0  0  0
  -35.6146   61.0838   64.5084 O   0  0  0  0  0  0  0  0  0  0  0  0
  -34.9137   59.8834   64.9106 C   0  0  0  0  0  0  0  0  0  0  0  0
  -34.5469   59.1694   63.6294 C   0  0  0  0  0  0  0  0  0  0  0  0
  -33.0655   58.9844   63.3669 N   0  0  0  0  0  0  0  0  0  0  0  0
  -32.4209   58.1864   64.4543 C   0  0  0  0  0  0  0  0  0  0  0  0
  -32.3993   60.3210   63.2961 C   0  0  0  0  0  0  0  0  0  0  0  0
  -32.8723   58.2669   62.0679 C   0  0  0  0  0  0  0  0  0  0  0  0
 34 33  1  0  0  0
 34 35  1  0  0  0
 34 36  1  0  0  0
 34 37  1  0  0  0
 22 23  1  0  0  0
 22 25  1  0  0  0
 22 21  1  0  0  0
 23 24  1  0  0  0
 27 26  1  0  0  0
 27 28  2  0  0  0
 27 31  1  0  0  0
 27 29  1  0  0  0
 25 26  1  0  0  0
 32 33  1  0  0  0
 32 31  1  0  0  0
 29 30  1  0  0  0
 20 21  1  0  0  0
 20  2  1  0  0  0
  1  2  2  0  0  0
  2  3  1  0  0  0
  3  4  1  0  0  0
  4  5  1  0  0  0
  5  6  1  0  0  0
  6  7  1  0  0  0
  7  8  1  0  0  0
  8  9  1  0  0  0
  9 10  1  0  0  0
 10 11  2  0  0  0
 11 12  1  0  0  0
 12 13  1  0  0  0
 13 14  1  0  0  0
 14 15  1  0  0  0
 15 16  1  0  0  0
 16 17  1  0  0  0
 17 18  1  0  0  0
 18 19  1  0  0  0
M  CHG 1  28  -1
M  END
> <minimizedAffinity>
-7.94468

> <CNNscore>
0.6500046849

> <CNNaffinity>
6.3508982658

> <CNN_VS>
4.1281137466

> <CNNaffinity_variance>
0.3305692673

$$$$
/media/chris/experiments/cd1a-new-docking/inputs/ligands/4x6c_ligand.pdb


 37 36  0  0  0  0  0  0  0  0999 V2000
  -41.0457   58.2747   65.3668 O   0  0  0  0  0  0  0  0  0  0  0  0
  -41.2069   59.4454   65.5299 C   0  0  0  0  0  0  0  0  0  0  0  0
  -42.5321   60.1325   65.4778 C   0  0  0  0  0  0  0  0  0  0  0  0
  -43.6559   59.2932   66.0559 C   0  0  0  0  0  0  0  0  0  0  0  0
  -44.8884   59.2738   65.1779 C   0  0  0  0  0  0  0  0  0  0  0  0
  -46.1785   59.5765   65.9030 C   0  0  0  0  0  0  0  0  0  0  0  0
  -47.3901   59.6058   65.0067 C   0  0  0  0  0  0  0  0  0  0  0  0
  -47.9103   58.2272   64.6996 C   0  0  0  0  0  0  0  0  0  0  0  0
  -49.3916   58.0484   64.8552 C   0  0  0  0  0  0  0  0  0  0  0  0
  -50.0962   59.2927   65.1967 C   0  0  0  0  0  0  0  0  0  0  0  0
  -50.8101   60.0613   64.4043 C   0  0  0  0  0  0  0  0  0  0  0  0
  -51.1095   59.8611   62.9639 C   0  0  0  0  0  0  0  0  0  0  0  0
  -49.9759   60.1796   62.0107 C   0  0  0  0  0  0  0  0  0  0  0  0
  -49.8622   59.1838   60.8893 C   0  0  0  0  0  0  0  0  0  0  0  0
  -50.2061   57.7663   61.2690 C   0  0  0  0  0  0  0  0  0  0  0  0
  -49.5180   56.7454   60.3898 C   0  0  0  0  0  0  0  0  0  0  0  0
  -49.3163   57.1720   58.9625 C   0  0  0  0  0  0  0  0  0  0  0  0
  -47.9642   56.8718   58.4515 C   0  0  0  0  0  0  0  0  0  0  0  0
  -47.4231   55.6086   58.9490 C   0  0  0  0  0  0  0  0  0  0  0  0
  -40.2166   60.3035   65.7744 O   0  0  0  0  0  0  0  0  0  0  0  0
  -38.9384   60.0426   65.1529 C   0  0  0  0  0  0  0  0  0  0  0  0
  -38.2140   61.3656   65.0563 C   0  0  0  0  0  0  0  0  0  0  0  0
  -38.9320   62.3562   65.7921 O   0  0  0  0  0  0  0  0  0  0  0  0
  -38.9450   62.1150   66.7315 H   0  0  0  0  0  0  0  0  0  0  0  0
  -36.7868   61.3498   65.5473 C   0  0  0  0  0  0  0  0  0  0  0  0
  -36.4324   62.6818   65.9706 O   0  0  0  0  0  0  0  0  0  0  0  0
  -35.2225   62.8898   66.9816 P   0  0  0  0  0  0  0  0  0  0  0  0
  -35.8065   63.2744   68.2825 O   0  0  0  0  0  0  0  0  0  0  0  0
  -34.3838   61.6777   66.8997 O   0  0  0  0  0  0  0  0  0  0  0  0
  -34.8908   60.9122   67.2122 H   0  0  0  0  0  0  0  0  0  0  0  0
  -34.3444   64.1038   66.4599 O   0  0  0  0  0  0  0  0  0  0  0  0
  -34.7544   64.8292   65.2769 C   0  0  0  0  0  0  0  0  0  0  0  0
  -33.4830   65.3640   64.6578 C   0  0  0  0  0  0  0  0  0  0  0  0
  -33.2129   64.9539   63.2238 N   0  0  0  0  0  0  0  0  0  0  0  0
  -32.3589   63.7284   63.1653 C   0  0  0  0  0  0  0  0  0  0  0  0
  -32.5071   66.0625   62.5109 C   0  0  0  0  0  0  0  0  0  0  0  0
  -34.5086   64.6677   62.5317 C   0  0  0  0  0  0  0  0  0  0  0  0
 34 33  1  0  0  0
 34 35  1  0  0  0
 34 36  1  0  0  0
 34 37  1  0  0  0
 22 23  1  0  0  0
 22 25  1  0  0  0
 22 21  1  0  0  0
 23 24  1  0  0  0
 27 26  1  0  0  0
 27 28  2  0  0  0
 27 31  1  0  0  0
 27 29  1  0  0  0
 25 26  1  0  0  0
 32 33  1  0  0  0
 32 31  1  0  0  0
 29 30  1  0  0  0
 20 21  1  0  0  0
 20  2  1  0  0  0
  1  2  2  0  0  0
  2  3  1  0  0  0
  3  4  1  0  0  0
  4  5  1  0  0  0
  5  6  1  0  0  0
  6  7  1  0  0  0
  7  8  1  0  0  0
  8  9  1  0  0  0
  9 10  1  0  0  0
 10 11  2  0  0  0
 11 12  1  0  0  0
 12 13  1  0  0  0
 13 14  1  0  0  0
 14 15  1  0  0  0
 15 16  1  0  0  0
 16 17  1  0  0  0
 17 18  1  0  0  0
 18 19  1  0  0  0
M  CHG 1  28  -1
M  END
> <minimizedAffinity>
-8.29882

> <CNNscore>
0.6318405867

> <CNNaffinity>
6.0940351486

> <CNN_VS>
3.8504588604

> <CNNaffinity_variance>
0.4262286127

$$$$
