/media/chris/experiments/cd1a-new-docking/inputs/ligands/4x6c_ligand.pdb


 37 36  0  0  0  0  0  0  0  0999 V2000
  -41.8684   58.2024   65.7152 O   0  0  0  0  0  0  0  0  0  0  0  0
  -42.7504   58.9272   65.3693 C   0  0  0  0  0  0  0  0  0  0  0  0
  -44.1209   58.4707   64.9890 C   0  0  0  0  0  0  0  0  0  0  0  0
  -44.5451   57.2073   65.7138 C   0  0  0  0  0  0  0  0  0  0  0  0
  -46.0413   56.9825   65.6794 C   0  0  0  0  0  0  0  0  0  0  0  0
  -46.8215   58.0677   64.9756 C   0  0  0  0  0  0  0  0  0  0  0  0
  -48.3113   57.9858   65.1909 C   0  0  0  0  0  0  0  0  0  0  0  0
  -48.9638   59.3420   65.2099 C   0  0  0  0  0  0  0  0  0  0  0  0
  -50.4452   59.3472   64.9736 C   0  0  0  0  0  0  0  0  0  0  0  0
  -50.8284   59.9498   63.6887 C   0  0  0  0  0  0  0  0  0  0  0  0
  -50.8360   59.3855   62.5012 C   0  0  0  0  0  0  0  0  0  0  0  0
  -50.4816   57.9867   62.1520 C   0  0  0  0  0  0  0  0  0  0  0  0
  -50.9697   57.5072   60.8002 C   0  0  0  0  0  0  0  0  0  0  0  0
  -49.9111   57.5947   59.7355 C   0  0  0  0  0  0  0  0  0  0  0  0
  -48.6662   56.7935   60.0183 C   0  0  0  0  0  0  0  0  0  0  0  0
  -48.2889   55.8809   58.8721 C   0  0  0  0  0  0  0  0  0  0  0  0
  -48.5576   56.4399   57.5028 C   0  0  0  0  0  0  0  0  0  0  0  0
  -47.3583   56.4733   56.6428 C   0  0  0  0  0  0  0  0  0  0  0  0
  -46.2194   57.1490   57.2613 C   0  0  0  0  0  0  0  0  0  0  0  0
  -42.6264   60.2505   65.2681 O   0  0  0  0  0  0  0  0  0  0  0  0
  -42.0141   60.7739   64.0684 C   0  0  0  0  0  0  0  0  0  0  0  0
  -40.8081   61.5764   64.5000 C   0  0  0  0  0  0  0  0  0  0  0  0
  -40.8123   61.7151   65.9208 O   0  0  0  0  0  0  0  0  0  0  0  0
  -40.7250   60.8406   66.3313 H   0  0  0  0  0  0  0  0  0  0  0  0
  -39.4761   61.0025   64.0820 C   0  0  0  0  0  0  0  0  0  0  0  0
  -39.6853   60.1346   62.9497 O   0  0  0  0  0  0  0  0  0  0  0  0
  -38.8951   60.4036   61.5960 P   0  0  0  0  0  0  0  0  0  0  0  0
  -39.9016   60.7229   60.5635 O   0  0  0  0  0  0  0  0  0  0  0  0
  -37.8427   61.3916   61.9046 O   0  0  0  0  0  0  0  0  0  0  0  0
  -38.2535   62.2297   62.1688 H   0  0  0  0  0  0  0  0  0  0  0  0
  -38.1668   59.0594   61.1721 O   0  0  0  0  0  0  0  0  0  0  0  0
  -37.8232   58.0809   62.1810 C   0  0  0  0  0  0  0  0  0  0  0  0
  -36.3661   58.3172   62.5078 C   0  0  0  0  0  0  0  0  0  0  0  0
  -36.0295   58.4942   63.9752 N   0  0  0  0  0  0  0  0  0  0  0  0
  -34.9573   57.5433   64.4007 C   0  0  0  0  0  0  0  0  0  0  0  0
  -37.2489   58.2404   64.8022 C   0  0  0  0  0  0  0  0  0  0  0  0
  -35.5522   59.8920   64.2150 C   0  0  0  0  0  0  0  0  0  0  0  0
 34 33  1  0  0  0
 34 35  1  0  0  0
 34 36  1  0  0  0
 34 37  1  0  0  0
 22 23  1  0  0  0
 22 25  1  0  0  0
 22 21  1  0  0  0
 23 24  1  0  0  0
 27 26  1  0  0  0
 27 28  2  0  0  0
 27 31  1  0  0  0
 27 29  1  0  0  0
 25 26  1  0  0  0
 32 33  1  0  0  0
 32 31  1  0  0  0
 29 30  1  0  0  0
 20 21  1  0  0  0
 20  2  1  0  0  0
  1  2  2  0  0  0
  2  3  1  0  0  0
  3  4  1  0  0  0
  4  5  1  0  0  0
  5  6  1  0  0  0
  6  7  1  0  0  0
  7  8  1  0  0  0
  8  9  1  0  0  0
  9 10  1  0  0  0
 10 11  2  0  0  0
 11 12  1  0  0  0
 12 13  1  0  0  0
 13 14  1  0  0  0
 14 15  1  0  0  0
 15 16  1  0  0  0
 16 17  1  0  0  0
 17 18  1  0  0  0
 18 19  1  0  0  0
M  CHG 1  28  -1
M  END
> <minimizedAffinity>
-8.31886

> <CNNscore>
0.8952590227

> <CNNaffinity>
7.0645089149

> <CNN_VS>
6.3245654106

> <CNNaffinity_variance>
0.5333005190

$$$$
/media/chris/experiments/cd1a-new-docking/inputs/ligands/4x6c_ligand.pdb


 37 36  0  0  0  0  0  0  0  0999 V2000
  -42.5649   59.8265   66.9277 O   0  0  0  0  0  0  0  0  0  0  0  0
  -42.6911   59.6015   65.7631 C   0  0  0  0  0  0  0  0  0  0  0  0
  -43.9820   59.2346   65.1072 C   0  0  0  0  0  0  0  0  0  0  0  0
  -44.1616   57.7361   64.9536 C   0  0  0  0  0  0  0  0  0  0  0  0
  -45.3643   57.2068   65.7045 C   0  0  0  0  0  0  0  0  0  0  0  0
  -46.4433   58.2323   65.9612 C   0  0  0  0  0  0  0  0  0  0  0  0
  -47.7063   58.0000   65.1719 C   0  0  0  0  0  0  0  0  0  0  0  0
  -48.5785   59.2252   65.1109 C   0  0  0  0  0  0  0  0  0  0  0  0
  -50.0554   58.9638   65.0883 C   0  0  0  0  0  0  0  0  0  0  0  0
  -50.8076   59.9385   64.2851 C   0  0  0  0  0  0  0  0  0  0  0  0
  -51.1778   59.8362   63.0276 C   0  0  0  0  0  0  0  0  0  0  0  0
  -50.9526   58.7005   62.0984 C   0  0  0  0  0  0  0  0  0  0  0  0
  -49.6147   58.6938   61.3874 C   0  0  0  0  0  0  0  0  0  0  0  0
  -49.0665   57.3068   61.1934 C   0  0  0  0  0  0  0  0  0  0  0  0
  -49.3200   56.7146   59.8308 C   0  0  0  0  0  0  0  0  0  0  0  0
  -48.2691   55.7021   59.4319 C   0  0  0  0  0  0  0  0  0  0  0  0
  -47.0879   56.2714   58.6968 C   0  0  0  0  0  0  0  0  0  0  0  0
  -47.4701   57.1471   57.5717 C   0  0  0  0  0  0  0  0  0  0  0  0
  -47.5214   56.4520   56.2869 C   0  0  0  0  0  0  0  0  0  0  0  0
  -41.6873   59.6404   64.8870 O   0  0  0  0  0  0  0  0  0  0  0  0
  -41.4890   60.8690   64.1528 C   0  0  0  0  0  0  0  0  0  0  0  0
  -40.3336   61.5935   64.8045 C   0  0  0  0  0  0  0  0  0  0  0  0
  -40.8168   62.3729   65.8987 O   0  0  0  0  0  0  0  0  0  0  0  0
  -41.1919   61.7854   66.5733 H   0  0  0  0  0  0  0  0  0  0  0  0
  -39.2237   60.7031   65.3082 C   0  0  0  0  0  0  0  0  0  0  0  0
  -38.2742   61.5156   66.0273 O   0  0  0  0  0  0  0  0  0  0  0  0
  -36.8783   61.8748   65.3552 P   0  0  0  0  0  0  0  0  0  0  0  0
  -37.1604   62.2873   63.9655 O   0  0  0  0  0  0  0  0  0  0  0  0
  -36.1979   62.8201   66.2621 O   0  0  0  0  0  0  0  0  0  0  0  0
  -36.7105   63.6418   66.3164 H   0  0  0  0  0  0  0  0  0  0  0  0
  -35.9980   60.5558   65.3063 O   0  0  0  0  0  0  0  0  0  0  0  0
  -35.6437   59.9769   64.0285 C   0  0  0  0  0  0  0  0  0  0  0  0
  -36.2113   58.5757   64.0370 C   0  0  0  0  0  0  0  0  0  0  0  0
  -37.1670   58.2339   62.9111 N   0  0  0  0  0  0  0  0  0  0  0  0
  -38.4205   57.6125   63.4380 C   0  0  0  0  0  0  0  0  0  0  0  0
  -36.5125   57.2693   61.9750 C   0  0  0  0  0  0  0  0  0  0  0  0
  -37.5277   59.4794   62.1642 C   0  0  0  0  0  0  0  0  0  0  0  0
 34 33  1  0  0  0
 34 35  1  0  0  0
 34 36  1  0  0  0
 34 37  1  0  0  0
 22 23  1  0  0  0
 22 25  1  0  0  0
 22 21  1  0  0  0
 23 24  1  0  0  0
 27 26  1  0  0  0
 27 28  2  0  0  0
 27 31  1  0  0  0
 27 29  1  0  0  0
 25 26  1  0  0  0
 32 33  1  0  0  0
 32 31  1  0  0  0
 29 30  1  0  0  0
 20 21  1  0  0  0
 20  2  1  0  0  0
  1  2  2  0  0  0
  2  3  1  0  0  0
  3  4  1  0  0  0
  4  5  1  0  0  0
  5  6  1  0  0  0
  6  7  1  0  0  0
  7  8  1  0  0  0
  8  9  1  0  0  0
  9 10  1  0  0  0
 10 11  2  0  0  0
 11 12  1  0  0  0
 12 13  1  0  0  0
 13 14  1  0  0  0
 14 15  1  0  0  0
 15 16  1  0  0  0
 16 17  1  0  0  0
 17 18  1  0  0  0
 18 19  1  0  0  0
M  CHG 1  28  -1
M  END
> <minimizedAffinity>
-8.09031

> <CNNscore>
0.8607861996

> <CNNaffinity>
7.0480704308

> <CNN_VS>
6.0668816566

> <CNNaffinity_variance>
0.4499915540

$$$$
/media/chris/experiments/cd1a-new-docking/inputs/ligands/4x6c_ligand.pdb


 37 36  0  0  0  0  0  0  0  0999 V2000
  -40.3542   61.3770   65.9625 O   0  0  0  0  0  0  0  0  0  0  0  0
  -40.7669   60.3717   65.4704 C   0  0  0  0  0  0  0  0  0  0  0  0
  -41.5802   59.3479   66.1926 C   0  0  0  0  0  0  0  0  0  0  0  0
  -43.0221   59.7742   66.3948 C   0  0  0  0  0  0  0  0  0  0  0  0
  -43.9328   59.3223   65.2738 C   0  0  0  0  0  0  0  0  0  0  0  0
  -45.2486   60.0605   65.1998 C   0  0  0  0  0  0  0  0  0  0  0  0
  -46.4398   59.2262   65.5965 C   0  0  0  0  0  0  0  0  0  0  0  0
  -47.6516   60.0648   65.9025 C   0  0  0  0  0  0  0  0  0  0  0  0
  -48.7590   59.9885   64.8935 C   0  0  0  0  0  0  0  0  0  0  0  0
  -49.4458   58.6890   64.8790 C   0  0  0  0  0  0  0  0  0  0  0  0
  -49.8712   58.0106   63.8361 C   0  0  0  0  0  0  0  0  0  0  0  0
  -49.7483   58.3695   62.4007 C   0  0  0  0  0  0  0  0  0  0  0  0
  -50.8256   57.8112   61.4933 C   0  0  0  0  0  0  0  0  0  0  0  0
  -50.3054   57.4452   60.1305 C   0  0  0  0  0  0  0  0  0  0  0  0
  -49.0144   56.6673   60.1375 C   0  0  0  0  0  0  0  0  0  0  0  0
  -48.4970   56.3864   58.7440 C   0  0  0  0  0  0  0  0  0  0  0  0
  -47.0151   56.5692   58.5698 C   0  0  0  0  0  0  0  0  0  0  0  0
  -46.6276   56.8872   57.1814 C   0  0  0  0  0  0  0  0  0  0  0  0
  -47.6065   56.4453   56.1901 C   0  0  0  0  0  0  0  0  0  0  0  0
  -40.5482   60.0223   64.2028 O   0  0  0  0  0  0  0  0  0  0  0  0
  -40.3109   61.0819   63.2495 C   0  0  0  0  0  0  0  0  0  0  0  0
  -39.2195   60.6050   62.3190 C   0  0  0  0  0  0  0  0  0  0  0  0
  -39.6298   60.7987   60.9654 O   0  0  0  0  0  0  0  0  0  0  0  0
  -39.7450   61.7466   60.7949 H   0  0  0  0  0  0  0  0  0  0  0  0
  -37.8797   61.2735   62.5103 C   0  0  0  0  0  0  0  0  0  0  0  0
  -37.8293   61.8280   63.8403 O   0  0  0  0  0  0  0  0  0  0  0  0
  -36.4642   62.4314   64.3895 P   0  0  0  0  0  0  0  0  0  0  0  0
  -36.0771   63.5266   63.4776 O   0  0  0  0  0  0  0  0  0  0  0  0
  -36.6728   62.7269   65.8207 O   0  0  0  0  0  0  0  0  0  0  0  0
  -37.3493   63.4159   65.9134 H   0  0  0  0  0  0  0  0  0  0  0  0
  -35.3526   61.3029   64.3008 O   0  0  0  0  0  0  0  0  0  0  0  0
  -35.1815   60.3767   65.3992 C   0  0  0  0  0  0  0  0  0  0  0  0
  -34.8412   59.0453   64.7689 C   0  0  0  0  0  0  0  0  0  0  0  0
  -36.0137   58.1461   64.4302 N   0  0  0  0  0  0  0  0  0  0  0  0
  -37.2678   58.6248   65.0883 C   0  0  0  0  0  0  0  0  0  0  0  0
  -35.7291   56.7553   64.8991 C   0  0  0  0  0  0  0  0  0  0  0  0
  -36.2250   58.1344   62.9489 C   0  0  0  0  0  0  0  0  0  0  0  0
 34 33  1  0  0  0
 34 35  1  0  0  0
 34 36  1  0  0  0
 34 37  1  0  0  0
 22 23  1  0  0  0
 22 25  1  0  0  0
 22 21  1  0  0  0
 23 24  1  0  0  0
 27 26  1  0  0  0
 27 28  2  0  0  0
 27 31  1  0  0  0
 27 29  1  0  0  0
 25 26  1  0  0  0
 32 33  1  0  0  0
 32 31  1  0  0  0
 29 30  1  0  0  0
 20 21  1  0  0  0
 20  2  1  0  0  0
  1  2  2  0  0  0
  2  3  1  0  0  0
  3  4  1  0  0  0
  4  5  1  0  0  0
  5  6  1  0  0  0
  6  7  1  0  0  0
  7  8  1  0  0  0
  8  9  1  0  0  0
  9 10  1  0  0  0
 10 11  2  0  0  0
 11 12  1  0  0  0
 12 13  1  0  0  0
 13 14  1  0  0  0
 14 15  1  0  0  0
 15 16  1  0  0  0
 16 17  1  0  0  0
 17 18  1  0  0  0
 18 19  1  0  0  0
M  CHG 1  28  -1
M  END
> <minimizedAffinity>
-7.87590

> <CNNscore>
0.8444052339

> <CNNaffinity>
6.8471717834

> <CNN_VS>
5.7817878723

> <CNNaffinity_variance>
0.3849946856

$$$$
/media/chris/experiments/cd1a-new-docking/inputs/ligands/4x6c_ligand.pdb


 37 36  0  0  0  0  0  0  0  0999 V2000
  -41.7572   57.8253   65.6979 O   0  0  0  0  0  0  0  0  0  0  0  0
  -42.7099   58.5069   65.4723 C   0  0  0  0  0  0  0  0  0  0  0  0
  -44.0363   57.9857   65.0250 C   0  0  0  0  0  0  0  0  0  0  0  0
  -44.7485   57.1842   66.0981 C   0  0  0  0  0  0  0  0  0  0  0  0
  -46.1819   57.6226   66.3073 C   0  0  0  0  0  0  0  0  0  0  0  0
  -46.3770   59.1195   66.3627 C   0  0  0  0  0  0  0  0  0  0  0  0
  -47.6045   59.6024   65.6330 C   0  0  0  0  0  0  0  0  0  0  0  0
  -48.1607   58.5643   64.6959 C   0  0  0  0  0  0  0  0  0  0  0  0
  -49.6140   58.2422   64.8810 C   0  0  0  0  0  0  0  0  0  0  0  0
  -50.4363   59.4190   65.1969 C   0  0  0  0  0  0  0  0  0  0  0  0
  -51.0773   60.2057   64.3608 C   0  0  0  0  0  0  0  0  0  0  0  0
  -51.1564   60.0970   62.8823 C   0  0  0  0  0  0  0  0  0  0  0  0
  -49.9034   60.4964   62.1300 C   0  0  0  0  0  0  0  0  0  0  0  0
  -49.7141   59.7144   60.8594 C   0  0  0  0  0  0  0  0  0  0  0  0
  -49.7165   58.2175   61.0352 C   0  0  0  0  0  0  0  0  0  0  0  0
  -50.3299   57.4944   59.8565 C   0  0  0  0  0  0  0  0  0  0  0  0
  -49.3498   57.0466   58.8083 C   0  0  0  0  0  0  0  0  0  0  0  0
  -48.0083   56.7576   59.3523 C   0  0  0  0  0  0  0  0  0  0  0  0
  -47.5010   55.4396   58.9756 C   0  0  0  0  0  0  0  0  0  0  0  0
  -42.7145   59.8352   65.5827 O   0  0  0  0  0  0  0  0  0  0  0  0
  -41.7060   60.4388   66.4232 C   0  0  0  0  0  0  0  0  0  0  0  0
  -40.6908   61.0813   65.5060 C   0  0  0  0  0  0  0  0  0  0  0  0
  -40.4455   62.4216   65.9318 O   0  0  0  0  0  0  0  0  0  0  0  0
  -40.0518   62.4123   66.8183 H   0  0  0  0  0  0  0  0  0  0  0  0
  -39.3671   60.3616   65.4143 C   0  0  0  0  0  0  0  0  0  0  0  0
  -38.3938   61.0906   66.1890 O   0  0  0  0  0  0  0  0  0  0  0  0
  -37.0697   61.6236   65.4876 P   0  0  0  0  0  0  0  0  0  0  0  0
  -36.1939   60.4544   65.2708 O   0  0  0  0  0  0  0  0  0  0  0  0
  -37.4958   62.4283   64.3257 O   0  0  0  0  0  0  0  0  0  0  0  0
  -37.9499   61.8576   63.6861 H   0  0  0  0  0  0  0  0  0  0  0  0
  -36.3365   62.6058   66.4949 O   0  0  0  0  0  0  0  0  0  0  0  0
  -34.8993   62.7596   66.4285 C   0  0  0  0  0  0  0  0  0  0  0  0
  -34.6564   64.1172   65.8091 C   0  0  0  0  0  0  0  0  0  0  0  0
  -33.6497   64.1657   64.6769 N   0  0  0  0  0  0  0  0  0  0  0  0
  -33.9770   65.2589   63.7111 C   0  0  0  0  0  0  0  0  0  0  0  0
  -33.6580   62.8626   63.9440 C   0  0  0  0  0  0  0  0  0  0  0  0
  -32.2820   64.4114   65.2322 C   0  0  0  0  0  0  0  0  0  0  0  0
 34 33  1  0  0  0
 34 35  1  0  0  0
 34 36  1  0  0  0
 34 37  1  0  0  0
 22 23  1  0  0  0
 22 25  1  0  0  0
 22 21  1  0  0  0
 23 24  1  0  0  0
 27 26  1  0  0  0
 27 28  2  0  0  0
 27 31  1  0  0  0
 27 29  1  0  0  0
 25 26  1  0  0  0
 32 33  1  0  0  0
 32 31  1  0  0  0
 29 30  1  0  0  0
 20 21  1  0  0  0
 20  2  1  0  0  0
  1  2  2  0  0  0
  2  3  1  0  0  0
  3  4  1  0  0  0
  4  5  1  0  0  0
  5  6  1  0  0  0
  6  7  1  0  0  0
  7  8  1  0  0  0
  8  9  1  0  0  0
  9 10  1  0  0  0
 10 11  2  0  0  0
 11 12  1  0  0  0
 12 13  1  0  0  0
 13 14  1  0  0  0
 14 15  1  0  0  0
 15 16  1  0  0  0
 16 17  1  0  0  0
 17 18  1  0  0  0
 18 19  1  0  0  0
M  CHG 1  28  -1
M  END
> <minimizedAffinity>
-8.12275

> <CNNscore>
0.7855787873

> <CNNaffinity>
6.3896965981

> <CNN_VS>
5.0196099281

> <CNNaffinity_variance>
0.2205317020

$$$$
/media/chris/experiments/cd1a-new-docking/inputs/ligands/4x6c_ligand.pdb


 37 36  0  0  0  0  0  0  0  0999 V2000
  -42.1777   57.8559   65.7243 O   0  0  0  0  0  0  0  0  0  0  0  0
  -42.6533   58.8680   65.3089 C   0  0  0  0  0  0  0  0  0  0  0  0
  -44.1179   59.1570   65.2600 C   0  0  0  0  0  0  0  0  0  0  0  0
  -44.9274   58.0104   64.6842 C   0  0  0  0  0  0  0  0  0  0  0  0
  -46.1660   57.6977   65.4957 C   0  0  0  0  0  0  0  0  0  0  0  0
  -47.4659   58.0737   64.8244 C   0  0  0  0  0  0  0  0  0  0  0  0
  -47.7072   59.5598   64.7508 C   0  0  0  0  0  0  0  0  0  0  0  0
  -48.8695   59.9954   65.6021 C   0  0  0  0  0  0  0  0  0  0  0  0
  -50.1942   59.3909   65.2415 C   0  0  0  0  0  0  0  0  0  0  0  0
  -50.8210   60.0177   64.0689 C   0  0  0  0  0  0  0  0  0  0  0  0
  -51.0377   59.4853   62.8864 C   0  0  0  0  0  0  0  0  0  0  0  0
  -50.7266   58.1057   62.4346 C   0  0  0  0  0  0  0  0  0  0  0  0
  -49.3596   57.9157   61.8095 C   0  0  0  0  0  0  0  0  0  0  0  0
  -49.3580   56.8799   60.7191 C   0  0  0  0  0  0  0  0  0  0  0  0
  -49.7790   57.3908   59.3650 C   0  0  0  0  0  0  0  0  0  0  0  0
  -48.7934   57.0305   58.2753 C   0  0  0  0  0  0  0  0  0  0  0  0
  -47.8463   55.9155   58.6213 C   0  0  0  0  0  0  0  0  0  0  0  0
  -46.9488   55.5486   57.5083 C   0  0  0  0  0  0  0  0  0  0  0  0
  -47.3046   56.1854   56.2418 C   0  0  0  0  0  0  0  0  0  0  0  0
  -41.9351   59.8799   64.8222 O   0  0  0  0  0  0  0  0  0  0  0  0
  -41.3139   60.7750   65.7713 C   0  0  0  0  0  0  0  0  0  0  0  0
  -40.4843   61.7575   64.9768 C   0  0  0  0  0  0  0  0  0  0  0  0
  -39.2776   62.0430   65.6842 O   0  0  0  0  0  0  0  0  0  0  0  0
  -38.7493   61.2333   65.7624 H   0  0  0  0  0  0  0  0  0  0  0  0
  -40.1229   61.3072   63.5822 C   0  0  0  0  0  0  0  0  0  0  0  0
  -39.0377   60.3621   63.6719 O   0  0  0  0  0  0  0  0  0  0  0  0
  -37.6747   60.6547   62.9065 P   0  0  0  0  0  0  0  0  0  0  0  0
  -36.7673   59.5248   63.1910 O   0  0  0  0  0  0  0  0  0  0  0  0
  -38.0277   60.9587   61.5058 O   0  0  0  0  0  0  0  0  0  0  0  0
  -38.4252   60.1749   61.0952 H   0  0  0  0  0  0  0  0  0  0  0  0
  -37.0320   61.9674   63.5236 O   0  0  0  0  0  0  0  0  0  0  0  0
  -35.8592   61.8647   64.3647 C   0  0  0  0  0  0  0  0  0  0  0  0
  -35.5303   63.2775   64.7910 C   0  0  0  0  0  0  0  0  0  0  0  0
  -34.4389   63.9767   64.0051 N   0  0  0  0  0  0  0  0  0  0  0  0
  -34.9518   64.4668   62.6891 C   0  0  0  0  0  0  0  0  0  0  0  0
  -33.3143   63.0239   63.7546 C   0  0  0  0  0  0  0  0  0  0  0  0
  -33.9299   65.1471   64.7863 C   0  0  0  0  0  0  0  0  0  0  0  0
 34 33  1  0  0  0
 34 35  1  0  0  0
 34 36  1  0  0  0
 34 37  1  0  0  0
 22 23  1  0  0  0
 22 25  1  0  0  0
 22 21  1  0  0  0
 23 24  1  0  0  0
 27 26  1  0  0  0
 27 28  2  0  0  0
 27 31  1  0  0  0
 27 29  1  0  0  0
 25 26  1  0  0  0
 32 33  1  0  0  0
 32 31  1  0  0  0
 29 30  1  0  0  0
 20 21  1  0  0  0
 20  2  1  0  0  0
  1  2  2  0  0  0
  2  3  1  0  0  0
  3  4  1  0  0  0
  4  5  1  0  0  0
  5  6  1  0  0  0
  6  7  1  0  0  0
  7  8  1  0  0  0
  8  9  1  0  0  0
  9 10  1  0  0  0
 10 11  2  0  0  0
 11 12  1  0  0  0
 12 13  1  0  0  0
 13 14  1  0  0  0
 14 15  1  0  0  0
 15 16  1  0  0  0
 16 17  1  0  0  0
 17 18  1  0  0  0
 18 19  1  0  0  0
M  CHG 1  28  -1
M  END
> <minimizedAffinity>
-8.06740

> <CNNscore>
0.7522192597

> <CNNaffinity>
6.5275001526

> <CNN_VS>
4.9101114273

> <CNNaffinity_variance>
0.5082398653

$$$$
/media/chris/experiments/cd1a-new-docking/inputs/ligands/4x6c_ligand.pdb


 37 36  0  0  0  0  0  0  0  0999 V2000
  -43.3868   59.3019   63.9553 O   0  0  0  0  0  0  0  0  0  0  0  0
  -43.5617   59.8233   65.0139 C   0  0  0  0  0  0  0  0  0  0  0  0
  -44.8526   59.8011   65.7651 C   0  0  0  0  0  0  0  0  0  0  0  0
  -45.4056   58.4004   65.9479 C   0  0  0  0  0  0  0  0  0  0  0  0
  -46.9109   58.3768   66.1027 C   0  0  0  0  0  0  0  0  0  0  0  0
  -47.6678   58.1066   64.8236 C   0  0  0  0  0  0  0  0  0  0  0  0
  -49.1424   57.8681   65.0257 C   0  0  0  0  0  0  0  0  0  0  0  0
  -49.8837   59.1280   65.3842 C   0  0  0  0  0  0  0  0  0  0  0  0
  -49.9965   60.1435   64.2859 C   0  0  0  0  0  0  0  0  0  0  0  0
  -51.1379   59.9086   63.3899 C   0  0  0  0  0  0  0  0  0  0  0  0
  -51.1778   59.1588   62.3105 C   0  0  0  0  0  0  0  0  0  0  0  0
  -50.0873   58.3364   61.7286 C   0  0  0  0  0  0  0  0  0  0  0  0
  -49.6903   58.6879   60.3093 C   0  0  0  0  0  0  0  0  0  0  0  0
  -49.7142   57.4996   59.3878 C   0  0  0  0  0  0  0  0  0  0  0  0
  -49.3620   56.1883   60.0424 C   0  0  0  0  0  0  0  0  0  0  0  0
  -47.9987   55.6794   59.6287 C   0  0  0  0  0  0  0  0  0  0  0  0
  -47.3801   56.4007   58.4639 C   0  0  0  0  0  0  0  0  0  0  0  0
  -47.4065   55.6163   57.2137 C   0  0  0  0  0  0  0  0  0  0  0  0
  -47.6466   56.4296   56.0233 C   0  0  0  0  0  0  0  0  0  0  0  0
  -42.6230   60.5071   65.6681 O   0  0  0  0  0  0  0  0  0  0  0  0
  -41.8939   59.8148   66.7059 C   0  0  0  0  0  0  0  0  0  0  0  0
  -40.5397   59.4607   66.1356 C   0  0  0  0  0  0  0  0  0  0  0  0
  -40.6938   58.4597   65.1295 O   0  0  0  0  0  0  0  0  0  0  0  0
  -41.2189   58.8165   64.3961 H   0  0  0  0  0  0  0  0  0  0  0  0
  -39.7741   60.6181   65.5417 C   0  0  0  0  0  0  0  0  0  0  0  0
  -38.8543   60.1033   64.5579 O   0  0  0  0  0  0  0  0  0  0  0  0
  -37.9998   61.1136   63.6755 P   0  0  0  0  0  0  0  0  0  0  0  0
  -38.7028   61.2627   62.3853 O   0  0  0  0  0  0  0  0  0  0  0  0
  -37.7604   62.3098   64.5066 O   0  0  0  0  0  0  0  0  0  0  0  0
  -38.6063   62.7429   64.7012 H   0  0  0  0  0  0  0  0  0  0  0  0
  -36.5872   60.4499   63.3908 O   0  0  0  0  0  0  0  0  0  0  0  0
  -35.8786   59.7839   64.4621 C   0  0  0  0  0  0  0  0  0  0  0  0
  -34.4136   60.0826   64.2379 C   0  0  0  0  0  0  0  0  0  0  0  0
  -33.5319   58.8953   63.9048 N   0  0  0  0  0  0  0  0  0  0  0  0
  -32.3378   59.3169   63.1102 C   0  0  0  0  0  0  0  0  0  0  0  0
  -34.3119   57.9021   63.1045 C   0  0  0  0  0  0  0  0  0  0  0  0
  -33.0612   58.2497   65.1700 C   0  0  0  0  0  0  0  0  0  0  0  0
 34 33  1  0  0  0
 34 35  1  0  0  0
 34 36  1  0  0  0
 34 37  1  0  0  0
 22 23  1  0  0  0
 22 25  1  0  0  0
 22 21  1  0  0  0
 23 24  1  0  0  0
 27 26  1  0  0  0
 27 28  2  0  0  0
 27 31  1  0  0  0
 27 29  1  0  0  0
 25 26  1  0  0  0
 32 33  1  0  0  0
 32 31  1  0  0  0
 29 30  1  0  0  0
 20 21  1  0  0  0
 20  2  1  0  0  0
  1  2  2  0  0  0
  2  3  1  0  0  0
  3  4  1  0  0  0
  4  5  1  0  0  0
  5  6  1  0  0  0
  6  7  1  0  0  0
  7  8  1  0  0  0
  8  9  1  0  0  0
  9 10  1  0  0  0
 10 11  2  0  0  0
 11 12  1  0  0  0
 12 13  1  0  0  0
 13 14  1  0  0  0
 14 15  1  0  0  0
 15 16  1  0  0  0
 16 17  1  0  0  0
 17 18  1  0  0  0
 18 19  1  0  0  0
M  CHG 1  28  -1
M  END
> <minimizedAffinity>
-7.49877

> <CNNscore>
0.6968274713

> <CNNaffinity>
6.5013747215

> <CNN_VS>
4.5303363800

> <CNNaffinity_variance>
0.3394825161

$$$$
/media/chris/experiments/cd1a-new-docking/inputs/ligands/4x6c_ligand.pdb


 37 36  0  0  0  0  0  0  0  0999 V2000
  -41.4648   60.7985   66.2346 O   0  0  0  0  0  0  0  0  0  0  0  0
  -41.6605   60.5004   65.0962 C   0  0  0  0  0  0  0  0  0  0  0  0
  -43.0097   60.4350   64.4585 C   0  0  0  0  0  0  0  0  0  0  0  0
  -43.7231   59.1217   64.7187 C   0  0  0  0  0  0  0  0  0  0  0  0
  -44.6362   59.1760   65.9244 C   0  0  0  0  0  0  0  0  0  0  0  0
  -46.0963   59.3798   65.5954 C   0  0  0  0  0  0  0  0  0  0  0  0
  -46.8890   58.0999   65.5181 C   0  0  0  0  0  0  0  0  0  0  0  0
  -48.1844   58.2713   64.7711 C   0  0  0  0  0  0  0  0  0  0  0  0
  -48.5560   59.6871   64.4427 C   0  0  0  0  0  0  0  0  0  0  0  0
  -49.9725   59.9907   64.6919 C   0  0  0  0  0  0  0  0  0  0  0  0
  -50.9541   60.0428   63.8187 C   0  0  0  0  0  0  0  0  0  0  0  0
  -50.8919   59.7863   62.3577 C   0  0  0  0  0  0  0  0  0  0  0  0
  -50.9865   58.3315   61.9453 C   0  0  0  0  0  0  0  0  0  0  0  0
  -49.6766   57.7806   61.4531 C   0  0  0  0  0  0  0  0  0  0  0  0
  -49.7168   57.2141   60.0569 C   0  0  0  0  0  0  0  0  0  0  0  0
  -49.0538   55.8577   59.9602 C   0  0  0  0  0  0  0  0  0  0  0  0
  -47.8744   55.7941   59.0302 C   0  0  0  0  0  0  0  0  0  0  0  0
  -48.0767   56.5555   57.7819 C   0  0  0  0  0  0  0  0  0  0  0  0
  -46.8627   57.2105   57.2986 C   0  0  0  0  0  0  0  0  0  0  0  0
  -40.6939   60.1758   64.2378 O   0  0  0  0  0  0  0  0  0  0  0  0
  -40.2818   61.1809   63.2849 C   0  0  0  0  0  0  0  0  0  0  0  0
  -39.1353   60.5966   62.4920 C   0  0  0  0  0  0  0  0  0  0  0  0
  -39.3503   60.8319   61.1004 O   0  0  0  0  0  0  0  0  0  0  0  0
  -39.3474   61.7867   60.9297 H   0  0  0  0  0  0  0  0  0  0  0  0
  -37.7700   61.1259   62.8585 C   0  0  0  0  0  0  0  0  0  0  0  0
  -37.8874   61.8979   64.0706 O   0  0  0  0  0  0  0  0  0  0  0  0
  -37.0479   61.4787   65.3546 P   0  0  0  0  0  0  0  0  0  0  0  0
  -37.9828   60.8147   66.2852 O   0  0  0  0  0  0  0  0  0  0  0  0
  -35.8674   60.7367   64.8698 O   0  0  0  0  0  0  0  0  0  0  0  0
  -36.1555   59.9187   64.4354 H   0  0  0  0  0  0  0  0  0  0  0  0
  -36.5168   62.8007   66.0526 O   0  0  0  0  0  0  0  0  0  0  0  0
  -35.0933   63.0468   66.1338 C   0  0  0  0  0  0  0  0  0  0  0  0
  -34.8572   64.3534   65.4109 C   0  0  0  0  0  0  0  0  0  0  0  0
  -34.2218   64.2534   64.0382 N   0  0  0  0  0  0  0  0  0  0  0  0
  -33.4084   65.4695   63.7309 C   0  0  0  0  0  0  0  0  0  0  0  0
  -35.2903   64.1189   63.0011 C   0  0  0  0  0  0  0  0  0  0  0  0
  -33.3285   63.0542   63.9854 C   0  0  0  0  0  0  0  0  0  0  0  0
 34 33  1  0  0  0
 34 35  1  0  0  0
 34 36  1  0  0  0
 34 37  1  0  0  0
 22 23  1  0  0  0
 22 25  1  0  0  0
 22 21  1  0  0  0
 23 24  1  0  0  0
 27 26  1  0  0  0
 27 28  2  0  0  0
 27 31  1  0  0  0
 27 29  1  0  0  0
 25 26  1  0  0  0
 32 33  1  0  0  0
 32 31  1  0  0  0
 29 30  1  0  0  0
 20 21  1  0  0  0
 20  2  1  0  0  0
  1  2  2  0  0  0
  2  3  1  0  0  0
  3  4  1  0  0  0
  4  5  1  0  0  0
  5  6  1  0  0  0
  6  7  1  0  0  0
  7  8  1  0  0  0
  8  9  1  0  0  0
  9 10  1  0  0  0
 10 11  2  0  0  0
 11 12  1  0  0  0
 12 13  1  0  0  0
 13 14  1  0  0  0
 14 15  1  0  0  0
 15 16  1  0  0  0
 16 17  1  0  0  0
 17 18  1  0  0  0
 18 19  1  0  0  0
M  CHG 1  28  -1
M  END
> <minimizedAffinity>
-7.89507

> <CNNscore>
0.6707563400

> <CNNaffinity>
6.4433646202

> <CNN_VS>
4.3219275475

> <CNNaffinity_variance>
0.7112659216

$$$$
/media/chris/experiments/cd1a-new-docking/inputs/ligands/4x6c_ligand.pdb


 37 36  0  0  0  0  0  0  0  0999 V2000
  -41.0561   58.3085   65.3754 O   0  0  0  0  0  0  0  0  0  0  0  0
  -41.2172   59.4611   65.6372 C   0  0  0  0  0  0  0  0  0  0  0  0
  -42.5447   60.1455   65.6627 C   0  0  0  0  0  0  0  0  0  0  0  0
  -43.5566   59.5068   64.7302 C   0  0  0  0  0  0  0  0  0  0  0  0
  -44.9549   59.4782   65.3086 C   0  0  0  0  0  0  0  0  0  0  0  0
  -45.7222   58.2074   65.0294 C   0  0  0  0  0  0  0  0  0  0  0  0
  -47.1357   58.4386   64.5594 C   0  0  0  0  0  0  0  0  0  0  0  0
  -47.8555   59.4674   65.3894 C   0  0  0  0  0  0  0  0  0  0  0  0
  -49.1428   59.9756   64.8108 C   0  0  0  0  0  0  0  0  0  0  0  0
  -49.0005   60.5026   63.4459 C   0  0  0  0  0  0  0  0  0  0  0  0
  -49.6926   60.1761   62.3767 C   0  0  0  0  0  0  0  0  0  0  0  0
  -50.8129   59.2073   62.2742 C   0  0  0  0  0  0  0  0  0  0  0  0
  -50.4161   57.7821   61.9474 C   0  0  0  0  0  0  0  0  0  0  0  0
  -50.9142   57.3343   60.6008 C   0  0  0  0  0  0  0  0  0  0  0  0
  -49.8918   57.4060   59.4957 C   0  0  0  0  0  0  0  0  0  0  0  0
  -48.5760   56.7646   59.8781 C   0  0  0  0  0  0  0  0  0  0  0  0
  -47.8751   56.0428   58.7612 C   0  0  0  0  0  0  0  0  0  0  0  0
  -48.2591   56.5311   57.4221 C   0  0  0  0  0  0  0  0  0  0  0  0
  -47.1548   56.5281   56.4647 C   0  0  0  0  0  0  0  0  0  0  0  0
  -40.2252   60.2995   65.9363 O   0  0  0  0  0  0  0  0  0  0  0  0
  -38.9177   60.0071   65.3949 C   0  0  0  0  0  0  0  0  0  0  0  0
  -38.2022   61.3278   65.2261 C   0  0  0  0  0  0  0  0  0  0  0  0
  -39.0012   62.3757   65.7752 O   0  0  0  0  0  0  0  0  0  0  0  0
  -39.1054   62.2367   66.7295 H   0  0  0  0  0  0  0  0  0  0  0  0
  -36.8312   61.3963   65.8537 C   0  0  0  0  0  0  0  0  0  0  0  0
  -36.4069   62.7740   65.8802 O   0  0  0  0  0  0  0  0  0  0  0  0
  -35.2043   63.2086   66.8258 P   0  0  0  0  0  0  0  0  0  0  0  0
  -35.8002   63.8273   68.0272 O   0  0  0  0  0  0  0  0  0  0  0  0
  -34.3346   62.0261   66.9819 O   0  0  0  0  0  0  0  0  0  0  0  0
  -34.8221   61.3245   67.4412 H   0  0  0  0  0  0  0  0  0  0  0  0
  -34.3570   64.3178   66.0717 O   0  0  0  0  0  0  0  0  0  0  0  0
  -32.9182   64.1890   65.9899 C   0  0  0  0  0  0  0  0  0  0  0  0
  -32.4618   65.2533   65.0180 C   0  0  0  0  0  0  0  0  0  0  0  0
  -32.3012   64.8175   63.5751 N   0  0  0  0  0  0  0  0  0  0  0  0
  -33.4590   65.2682   62.7437 C   0  0  0  0  0  0  0  0  0  0  0  0
  -32.2179   63.3261   63.5094 C   0  0  0  0  0  0  0  0  0  0  0  0
  -31.0476   65.4075   63.0097 C   0  0  0  0  0  0  0  0  0  0  0  0
 34 33  1  0  0  0
 34 35  1  0  0  0
 34 36  1  0  0  0
 34 37  1  0  0  0
 22 23  1  0  0  0
 22 25  1  0  0  0
 22 21  1  0  0  0
 23 24  1  0  0  0
 27 26  1  0  0  0
 27 28  2  0  0  0
 27 31  1  0  0  0
 27 29  1  0  0  0
 25 26  1  0  0  0
 32 33  1  0  0  0
 32 31  1  0  0  0
 29 30  1  0  0  0
 20 21  1  0  0  0
 20  2  1  0  0  0
  1  2  2  0  0  0
  2  3  1  0  0  0
  3  4  1  0  0  0
  4  5  1  0  0  0
  5  6  1  0  0  0
  6  7  1  0  0  0
  7  8  1  0  0  0
  8  9  1  0  0  0
  9 10  1  0  0  0
 10 11  2  0  0  0
 11 12  1  0  0  0
 12 13  1  0  0  0
 13 14  1  0  0  0
 14 15  1  0  0  0
 15 16  1  0  0  0
 16 17  1  0  0  0
 17 18  1  0  0  0
 18 19  1  0  0  0
M  CHG 1  28  -1
M  END
> <minimizedAffinity>
-8.25499

> <CNNscore>
0.6408450007

> <CNNaffinity>
6.1210603714

> <CNN_VS>
3.9226510525

> <CNNaffinity_variance>
0.7245848179

$$$$
/media/chris/experiments/cd1a-new-docking/inputs/ligands/4x6c_ligand.pdb


 37 36  0  0  0  0  0  0  0  0999 V2000
  -39.8917   58.7364   64.4869 O   0  0  0  0  0  0  0  0  0  0  0  0
  -40.7654   59.5376   64.6206 C   0  0  0  0  0  0  0  0  0  0  0  0
  -41.4465   59.8386   65.9155 C   0  0  0  0  0  0  0  0  0  0  0  0
  -42.9525   59.9579   65.7770 C   0  0  0  0  0  0  0  0  0  0  0  0
  -43.6429   58.6151   65.6737 C   0  0  0  0  0  0  0  0  0  0  0  0
  -45.1424   58.6668   65.8483 C   0  0  0  0  0  0  0  0  0  0  0  0
  -45.9115   58.0548   64.7054 C   0  0  0  0  0  0  0  0  0  0  0  0
  -47.3698   57.8698   65.0288 C   0  0  0  0  0  0  0  0  0  0  0  0
  -48.0901   59.1043   65.4839 C   0  0  0  0  0  0  0  0  0  0  0  0
  -49.5515   58.9483   65.5152 C   0  0  0  0  0  0  0  0  0  0  0  0
  -50.4455   59.5514   64.7629 C   0  0  0  0  0  0  0  0  0  0  0  0
  -50.2105   60.5296   63.6711 C   0  0  0  0  0  0  0  0  0  0  0  0
  -50.6624   60.0912   62.2930 C   0  0  0  0  0  0  0  0  0  0  0  0
  -50.9623   58.6193   62.2205 C   0  0  0  0  0  0  0  0  0  0  0  0
  -49.8761   57.7858   61.5902 C   0  0  0  0  0  0  0  0  0  0  0  0
  -49.5593   58.2170   60.1751 C   0  0  0  0  0  0  0  0  0  0  0  0
  -49.5395   57.1051   59.1637 C   0  0  0  0  0  0  0  0  0  0  0  0
  -48.2347   56.9553   58.4898 C   0  0  0  0  0  0  0  0  0  0  0  0
  -47.5681   55.6899   58.7908 C   0  0  0  0  0  0  0  0  0  0  0  0
  -41.2589   60.2705   63.6226 O   0  0  0  0  0  0  0  0  0  0  0  0
  -40.3532   61.1671   62.9415 C   0  0  0  0  0  0  0  0  0  0  0  0
  -40.0409   60.5464   61.5992 C   0  0  0  0  0  0  0  0  0  0  0  0
  -40.6186   61.3394   60.5621 O   0  0  0  0  0  0  0  0  0  0  0  0
  -40.2104   62.2194   60.5626 H   0  0  0  0  0  0  0  0  0  0  0  0
  -38.5712   60.3725   61.3023 C   0  0  0  0  0  0  0  0  0  0  0  0
  -38.2754   58.9619   61.2603 O   0  0  0  0  0  0  0  0  0  0  0  0
  -37.0331   58.3942   62.0751 P   0  0  0  0  0  0  0  0  0  0  0  0
  -37.4835   57.1576   62.7452 O   0  0  0  0  0  0  0  0  0  0  0  0
  -35.8980   58.3297   61.1337 O   0  0  0  0  0  0  0  0  0  0  0  0
  -36.0965   57.6912   60.4310 H   0  0  0  0  0  0  0  0  0  0  0  0
  -36.6526   59.4495   63.1970 O   0  0  0  0  0  0  0  0  0  0  0  0
  -35.3480   59.3947   63.8203 C   0  0  0  0  0  0  0  0  0  0  0  0
  -35.4876   60.1233   65.1376 C   0  0  0  0  0  0  0  0  0  0  0  0
  -34.9474   61.5390   65.1800 N   0  0  0  0  0  0  0  0  0  0  0  0
  -34.4278   61.8772   66.5404 C   0  0  0  0  0  0  0  0  0  0  0  0
  -36.0377   62.5010   64.8323 C   0  0  0  0  0  0  0  0  0  0  0  0
  -33.8314   61.6795   64.1930 C   0  0  0  0  0  0  0  0  0  0  0  0
 34 33  1  0  0  0
 34 35  1  0  0  0
 34 36  1  0  0  0
 34 37  1  0  0  0
 22 23  1  0  0  0
 22 25  1  0  0  0
 22 21  1  0  0  0
 23 24  1  0  0  0
 27 26  1  0  0  0
 27 28  2  0  0  0
 27 31  1  0  0  0
 27 29  1  0  0  0
 25 26  1  0  0  0
 32 33  1  0  0  0
 32 31  1  0  0  0
 29 30  1  0  0  0
 20 21  1  0  0  0
 20  2  1  0  0  0
  1  2  2  0  0  0
  2  3  1  0  0  0
  3  4  1  0  0  0
  4  5  1  0  0  0
  5  6  1  0  0  0
  6  7  1  0  0  0
  7  8  1  0  0  0
  8  9  1  0  0  0
  9 10  1  0  0  0
 10 11  2  0  0  0
 11 12  1  0  0  0
 12 13  1  0  0  0
 13 14  1  0  0  0
 14 15  1  0  0  0
 15 16  1  0  0  0
 16 17  1  0  0  0
 17 18  1  0  0  0
 18 19  1  0  0  0
M  CHG 1  28  -1
M  END
> <minimizedAffinity>
-7.63664

> <CNNscore>
0.6305339336

> <CNNaffinity>
6.5301408768

> <CNN_VS>
4.1174755096

> <CNNaffinity_variance>
0.4985272884

$$$$
