/media/chris/experiments/cd1a-new-docking/inputs/ligands/4x6c_ligand.pdb


 37 36  0  0  0  0  0  0  0  0999 V2000
  -42.2979   57.6700   66.0725 O   0  0  0  0  0  0  0  0  0  0  0  0
  -42.7944   58.5195   65.3984 C   0  0  0  0  0  0  0  0  0  0  0  0
  -44.1734   58.4497   64.8286 C   0  0  0  0  0  0  0  0  0  0  0  0
  -45.0608   59.5914   65.2875 C   0  0  0  0  0  0  0  0  0  0  0  0
  -46.2905   59.1190   66.0326 C   0  0  0  0  0  0  0  0  0  0  0  0
  -46.4104   57.6182   66.1549 C   0  0  0  0  0  0  0  0  0  0  0  0
  -47.5724   57.0345   65.3924 C   0  0  0  0  0  0  0  0  0  0  0  0
  -48.3880   58.0888   64.6934 C   0  0  0  0  0  0  0  0  0  0  0  0
  -49.8493   58.1020   65.0319 C   0  0  0  0  0  0  0  0  0  0  0  0
  -50.4069   59.4566   65.1541 C   0  0  0  0  0  0  0  0  0  0  0  0
  -50.9565   60.1929   64.2136 C   0  0  0  0  0  0  0  0  0  0  0  0
  -51.1778   59.8391   62.7887 C   0  0  0  0  0  0  0  0  0  0  0  0
  -50.0078   60.0991   61.8619 C   0  0  0  0  0  0  0  0  0  0  0  0
  -49.8861   59.0662   60.7755 C   0  0  0  0  0  0  0  0  0  0  0  0
  -50.6056   57.7715   61.0544 C   0  0  0  0  0  0  0  0  0  0  0  0
  -49.9794   56.5929   60.3421 C   0  0  0  0  0  0  0  0  0  0  0  0
  -48.5250   56.7590   60.0007 C   0  0  0  0  0  0  0  0  0  0  0  0
  -48.2659   56.7657   58.5474 C   0  0  0  0  0  0  0  0  0  0  0  0
  -47.6474   55.5334   58.0626 C   0  0  0  0  0  0  0  0  0  0  0  0
  -42.1764   59.6495   65.0548 O   0  0  0  0  0  0  0  0  0  0  0  0
  -41.5408   60.4093   66.1068 C   0  0  0  0  0  0  0  0  0  0  0  0
  -40.3724   61.1380   65.4837 C   0  0  0  0  0  0  0  0  0  0  0  0
  -40.2979   62.4607   66.0158 O   0  0  0  0  0  0  0  0  0  0  0  0
  -40.1209   62.4165   66.9684 H   0  0  0  0  0  0  0  0  0  0  0  0
  -39.0306   60.4730   65.6725 C   0  0  0  0  0  0  0  0  0  0  0  0
  -38.1929   60.8020   64.5460 O   0  0  0  0  0  0  0  0  0  0  0  0
  -36.9599   61.7870   64.7440 P   0  0  0  0  0  0  0  0  0  0  0  0
  -36.6377   62.3492   63.4170 O   0  0  0  0  0  0  0  0  0  0  0  0
  -37.3167   62.7023   65.8457 O   0  0  0  0  0  0  0  0  0  0  0  0
  -38.0774   63.2437   65.5828 H   0  0  0  0  0  0  0  0  0  0  0  0
  -35.7155   60.9312   65.2297 O   0  0  0  0  0  0  0  0  0  0  0  0
  -34.3748   61.3624   64.8973 C   0  0  0  0  0  0  0  0  0  0  0  0
  -34.1128   62.5883   65.7423 C   0  0  0  0  0  0  0  0  0  0  0  0
  -33.5706   63.8010   65.0121 N   0  0  0  0  0  0  0  0  0  0  0  0
  -33.2250   63.4677   63.5964 C   0  0  0  0  0  0  0  0  0  0  0  0
  -32.3379   64.2906   65.7022 C   0  0  0  0  0  0  0  0  0  0  0  0
  -34.6001   64.8870   65.0105 C   0  0  0  0  0  0  0  0  0  0  0  0
 34 33  1  0  0  0
 34 35  1  0  0  0
 34 36  1  0  0  0
 34 37  1  0  0  0
 22 23  1  0  0  0
 22 25  1  0  0  0
 22 21  1  0  0  0
 23 24  1  0  0  0
 27 26  1  0  0  0
 27 28  2  0  0  0
 27 31  1  0  0  0
 27 29  1  0  0  0
 25 26  1  0  0  0
 32 33  1  0  0  0
 32 31  1  0  0  0
 29 30  1  0  0  0
 20 21  1  0  0  0
 20  2  1  0  0  0
  1  2  2  0  0  0
  2  3  1  0  0  0
  3  4  1  0  0  0
  4  5  1  0  0  0
  5  6  1  0  0  0
  6  7  1  0  0  0
  7  8  1  0  0  0
  8  9  1  0  0  0
  9 10  1  0  0  0
 10 11  2  0  0  0
 11 12  1  0  0  0
 12 13  1  0  0  0
 13 14  1  0  0  0
 14 15  1  0  0  0
 15 16  1  0  0  0
 16 17  1  0  0  0
 17 18  1  0  0  0
 18 19  1  0  0  0
M  CHG 1  28  -1
M  END
> <minimizedAffinity>
-8.10091

> <CNNscore>
0.8568493724

> <CNNaffinity>
6.5483269691

> <CNN_VS>
5.6109299660

> <CNNaffinity_variance>
0.2944611609

$$$$
/media/chris/experiments/cd1a-new-docking/inputs/ligands/4x6c_ligand.pdb


 37 36  0  0  0  0  0  0  0  0999 V2000
  -41.9981   59.3152   66.9206 O   0  0  0  0  0  0  0  0  0  0  0  0
  -42.3912   59.3402   65.7947 C   0  0  0  0  0  0  0  0  0  0  0  0
  -43.8069   59.0942   65.3868 C   0  0  0  0  0  0  0  0  0  0  0  0
  -44.2517   57.6643   65.6297 C   0  0  0  0  0  0  0  0  0  0  0  0
  -45.7495   57.5347   65.8043 C   0  0  0  0  0  0  0  0  0  0  0  0
  -46.3977   58.6908   66.5290 C   0  0  0  0  0  0  0  0  0  0  0  0
  -47.5673   59.2935   65.7935 C   0  0  0  0  0  0  0  0  0  0  0  0
  -48.2682   58.2944   64.9127 C   0  0  0  0  0  0  0  0  0  0  0  0
  -49.7528   58.1972   65.1039 C   0  0  0  0  0  0  0  0  0  0  0  0
  -50.4102   59.5053   65.2360 C   0  0  0  0  0  0  0  0  0  0  0  0
  -50.9942   60.2156   64.2962 C   0  0  0  0  0  0  0  0  0  0  0  0
  -51.1618   59.8710   62.8617 C   0  0  0  0  0  0  0  0  0  0  0  0
  -49.9802   60.1939   61.9701 C   0  0  0  0  0  0  0  0  0  0  0  0
  -49.7591   59.1596   60.9008 C   0  0  0  0  0  0  0  0  0  0  0  0
  -49.6969   57.7395   61.4020 C   0  0  0  0  0  0  0  0  0  0  0  0
  -49.8482   56.7235   60.2913 C   0  0  0  0  0  0  0  0  0  0  0  0
  -48.5823   56.4084   59.5444 C   0  0  0  0  0  0  0  0  0  0  0  0
  -48.6135   56.8486   58.1357 C   0  0  0  0  0  0  0  0  0  0  0  0
  -47.7657   56.0446   57.2577 C   0  0  0  0  0  0  0  0  0  0  0  0
  -41.6110   59.5851   64.7420 O   0  0  0  0  0  0  0  0  0  0  0  0
  -41.5856   60.9359   64.2296 C   0  0  0  0  0  0  0  0  0  0  0  0
  -40.1723   61.4459   64.3936 C   0  0  0  0  0  0  0  0  0  0  0  0
  -39.9990   61.9505   65.7178 O   0  0  0  0  0  0  0  0  0  0  0  0
  -40.1089   61.2284   66.3559 H   0  0  0  0  0  0  0  0  0  0  0  0
  -39.0907   60.4273   64.1272 C   0  0  0  0  0  0  0  0  0  0  0  0
  -39.3602   59.7923   62.8611 O   0  0  0  0  0  0  0  0  0  0  0  0
  -38.7441   60.4031   61.5281 P   0  0  0  0  0  0  0  0  0  0  0  0
  -39.8772   60.8475   60.6917 O   0  0  0  0  0  0  0  0  0  0  0  0
  -37.7247   61.3878   61.9404 O   0  0  0  0  0  0  0  0  0  0  0  0
  -38.1526   62.1152   62.4186 H   0  0  0  0  0  0  0  0  0  0  0  0
  -37.9888   59.2421   60.7543 O   0  0  0  0  0  0  0  0  0  0  0  0
  -37.5355   58.0742   61.4784 C   0  0  0  0  0  0  0  0  0  0  0  0
  -36.0820   58.3290   61.8068 C   0  0  0  0  0  0  0  0  0  0  0  0
  -35.6936   58.2025   63.2666 N   0  0  0  0  0  0  0  0  0  0  0  0
  -34.4274   57.4231   63.4218 C   0  0  0  0  0  0  0  0  0  0  0  0
  -36.7814   57.5007   64.0145 C   0  0  0  0  0  0  0  0  0  0  0  0
  -35.4917   59.5651   63.8515 C   0  0  0  0  0  0  0  0  0  0  0  0
 34 33  1  0  0  0
 34 35  1  0  0  0
 34 36  1  0  0  0
 34 37  1  0  0  0
 22 23  1  0  0  0
 22 25  1  0  0  0
 22 21  1  0  0  0
 23 24  1  0  0  0
 27 26  1  0  0  0
 27 28  2  0  0  0
 27 31  1  0  0  0
 27 29  1  0  0  0
 25 26  1  0  0  0
 32 33  1  0  0  0
 32 31  1  0  0  0
 29 30  1  0  0  0
 20 21  1  0  0  0
 20  2  1  0  0  0
  1  2  2  0  0  0
  2  3  1  0  0  0
  3  4  1  0  0  0
  4  5  1  0  0  0
  5  6  1  0  0  0
  6  7  1  0  0  0
  7  8  1  0  0  0
  8  9  1  0  0  0
  9 10  1  0  0  0
 10 11  2  0  0  0
 11 12  1  0  0  0
 12 13  1  0  0  0
 13 14  1  0  0  0
 14 15  1  0  0  0
 15 16  1  0  0  0
 16 17  1  0  0  0
 17 18  1  0  0  0
 18 19  1  0  0  0
M  CHG 1  28  -1
M  END
> <minimizedAffinity>
-8.27507

> <CNNscore>
0.8471791148

> <CNNaffinity>
6.8859734535

> <CNN_VS>
5.8336529732

> <CNNaffinity_variance>
0.4031090140

$$$$
/media/chris/experiments/cd1a-new-docking/inputs/ligands/4x6c_ligand.pdb


 37 36  0  0  0  0  0  0  0  0999 V2000
  -41.5441   57.7498   65.5555 O   0  0  0  0  0  0  0  0  0  0  0  0
  -42.5090   58.4309   65.7227 C   0  0  0  0  0  0  0  0  0  0  0  0
  -43.9089   57.9139   65.7875 C   0  0  0  0  0  0  0  0  0  0  0  0
  -44.9350   58.9263   65.3146 C   0  0  0  0  0  0  0  0  0  0  0  0
  -45.9929   58.3186   64.4190 C   0  0  0  0  0  0  0  0  0  0  0  0
  -47.3998   58.7892   64.7036 C   0  0  0  0  0  0  0  0  0  0  0  0
  -48.4228   57.6821   64.7161 C   0  0  0  0  0  0  0  0  0  0  0  0
  -49.7834   58.1626   65.1445 C   0  0  0  0  0  0  0  0  0  0  0  0
  -50.0044   59.6429   65.0450 C   0  0  0  0  0  0  0  0  0  0  0  0
  -51.0604   60.0117   64.0912 C   0  0  0  0  0  0  0  0  0  0  0  0
  -50.9396   60.2534   62.8045 C   0  0  0  0  0  0  0  0  0  0  0  0
  -49.7094   60.1947   61.9753 C   0  0  0  0  0  0  0  0  0  0  0  0
  -49.7195   59.1652   60.8638 C   0  0  0  0  0  0  0  0  0  0  0  0
  -50.0737   57.7871   61.3510 C   0  0  0  0  0  0  0  0  0  0  0  0
  -50.0540   56.7192   60.2875 C   0  0  0  0  0  0  0  0  0  0  0  0
  -49.1432   57.0669   59.1308 C   0  0  0  0  0  0  0  0  0  0  0  0
  -47.9381   56.1804   58.9849 C   0  0  0  0  0  0  0  0  0  0  0  0
  -47.2351   56.3617   57.6996 C   0  0  0  0  0  0  0  0  0  0  0  0
  -47.5904   55.3591   56.6973 C   0  0  0  0  0  0  0  0  0  0  0  0
  -42.4661   59.7553   65.8671 O   0  0  0  0  0  0  0  0  0  0  0  0
  -41.3055   60.3187   66.5181 C   0  0  0  0  0  0  0  0  0  0  0  0
  -40.6660   61.2732   65.5361 C   0  0  0  0  0  0  0  0  0  0  0  0
  -40.6851   62.5948   66.0756 O   0  0  0  0  0  0  0  0  0  0  0  0
  -40.1456   62.6230   66.8812 H   0  0  0  0  0  0  0  0  0  0  0  0
  -39.2457   60.9370   65.1511 C   0  0  0  0  0  0  0  0  0  0  0  0
  -38.3686   61.9290   65.7216 O   0  0  0  0  0  0  0  0  0  0  0  0
  -36.7938   61.7671   65.5696 P   0  0  0  0  0  0  0  0  0  0  0  0
  -36.2349   61.6710   66.9332 O   0  0  0  0  0  0  0  0  0  0  0  0
  -36.5677   60.6600   64.6199 O   0  0  0  0  0  0  0  0  0  0  0  0
  -36.9060   59.8340   64.9996 H   0  0  0  0  0  0  0  0  0  0  0  0
  -36.2229   63.0857   64.8972 O   0  0  0  0  0  0  0  0  0  0  0  0
  -34.9574   63.6280   65.3426 C   0  0  0  0  0  0  0  0  0  0  0  0
  -34.7115   64.8552   64.4947 C   0  0  0  0  0  0  0  0  0  0  0  0
  -33.2859   65.0708   64.0269 N   0  0  0  0  0  0  0  0  0  0  0  0
  -33.2379   65.9934   62.8516 C   0  0  0  0  0  0  0  0  0  0  0  0
  -32.6861   63.7600   63.6300 C   0  0  0  0  0  0  0  0  0  0  0  0
  -32.4787   65.6673   65.1369 C   0  0  0  0  0  0  0  0  0  0  0  0
 34 33  1  0  0  0
 34 35  1  0  0  0
 34 36  1  0  0  0
 34 37  1  0  0  0
 22 23  1  0  0  0
 22 25  1  0  0  0
 22 21  1  0  0  0
 23 24  1  0  0  0
 27 26  1  0  0  0
 27 28  2  0  0  0
 27 31  1  0  0  0
 27 29  1  0  0  0
 25 26  1  0  0  0
 32 33  1  0  0  0
 32 31  1  0  0  0
 29 30  1  0  0  0
 20 21  1  0  0  0
 20  2  1  0  0  0
  1  2  2  0  0  0
  2  3  1  0  0  0
  3  4  1  0  0  0
  4  5  1  0  0  0
  5  6  1  0  0  0
  6  7  1  0  0  0
  7  8  1  0  0  0
  8  9  1  0  0  0
  9 10  1  0  0  0
 10 11  2  0  0  0
 11 12  1  0  0  0
 12 13  1  0  0  0
 13 14  1  0  0  0
 14 15  1  0  0  0
 15 16  1  0  0  0
 16 17  1  0  0  0
 17 18  1  0  0  0
 18 19  1  0  0  0
M  CHG 1  28  -1
M  END
> <minimizedAffinity>
-8.04518

> <CNNscore>
0.8086240888

> <CNNaffinity>
6.4545555115

> <CNN_VS>
5.2193088531

> <CNNaffinity_variance>
0.2926359475

$$$$
/media/chris/experiments/cd1a-new-docking/inputs/ligands/4x6c_ligand.pdb


 37 36  0  0  0  0  0  0  0  0999 V2000
  -42.6531   60.6212   64.0218 O   0  0  0  0  0  0  0  0  0  0  0  0
  -42.5289   60.0125   65.0401 C   0  0  0  0  0  0  0  0  0  0  0  0
  -43.5703   59.1126   65.6205 C   0  0  0  0  0  0  0  0  0  0  0  0
  -44.9829   59.5407   65.2701 C   0  0  0  0  0  0  0  0  0  0  0  0
  -45.8938   58.3717   64.9632 C   0  0  0  0  0  0  0  0  0  0  0  0
  -47.3310   58.7514   64.6951 C   0  0  0  0  0  0  0  0  0  0  0  0
  -48.3326   57.7431   65.1976 C   0  0  0  0  0  0  0  0  0  0  0  0
  -49.7538   58.1922   64.9879 C   0  0  0  0  0  0  0  0  0  0  0  0
  -49.9288   59.6472   64.6678 C   0  0  0  0  0  0  0  0  0  0  0  0
  -51.0821   59.9177   63.7973 C   0  0  0  0  0  0  0  0  0  0  0  0
  -51.1766   59.7324   62.4991 C   0  0  0  0  0  0  0  0  0  0  0  0
  -50.1513   59.1805   61.5780 C   0  0  0  0  0  0  0  0  0  0  0  0
  -50.4190   57.7798   61.0665 C   0  0  0  0  0  0  0  0  0  0  0  0
  -49.4398   57.3500   60.0089 C   0  0  0  0  0  0  0  0  0  0  0  0
  -49.1001   55.8816   60.0251 C   0  0  0  0  0  0  0  0  0  0  0  0
  -48.0750   55.5101   58.9764 C   0  0  0  0  0  0  0  0  0  0  0  0
  -47.0808   56.5900   58.6521 C   0  0  0  0  0  0  0  0  0  0  0  0
  -46.8045   56.7110   57.2070 C   0  0  0  0  0  0  0  0  0  0  0  0
  -47.9613   56.4057   56.3675 C   0  0  0  0  0  0  0  0  0  0  0  0
  -41.4384   60.0612   65.8051 O   0  0  0  0  0  0  0  0  0  0  0  0
  -40.5088   61.1432   65.5744 C   0  0  0  0  0  0  0  0  0  0  0  0
  -39.1771   60.5175   65.2288 C   0  0  0  0  0  0  0  0  0  0  0  0
  -38.2651   60.7117   66.3099 O   0  0  0  0  0  0  0  0  0  0  0  0
  -38.5930   60.2489   67.0966 H   0  0  0  0  0  0  0  0  0  0  0  0
  -39.2279   59.0434   64.9082 C   0  0  0  0  0  0  0  0  0  0  0  0
  -38.5963   58.8299   63.6297 O   0  0  0  0  0  0  0  0  0  0  0  0
  -37.3295   57.8737   63.5283 P   0  0  0  0  0  0  0  0  0  0  0  0
  -37.1553   57.2441   64.8528 O   0  0  0  0  0  0  0  0  0  0  0  0
  -37.5355   57.0152   62.3453 O   0  0  0  0  0  0  0  0  0  0  0  0
  -38.3112   56.4503   62.4870 H   0  0  0  0  0  0  0  0  0  0  0  0
  -36.0534   58.7711   63.2400 O   0  0  0  0  0  0  0  0  0  0  0  0
  -35.2140   59.1984   64.3384 C   0  0  0  0  0  0  0  0  0  0  0  0
  -34.0489   59.9282   63.7094 C   0  0  0  0  0  0  0  0  0  0  0  0
  -32.8152   59.0960   63.4206 N   0  0  0  0  0  0  0  0  0  0  0  0
  -32.4655   58.2280   64.5863 C   0  0  0  0  0  0  0  0  0  0  0  0
  -31.6587   59.9991   63.1334 C   0  0  0  0  0  0  0  0  0  0  0  0
  -33.0668   58.2225   62.2318 C   0  0  0  0  0  0  0  0  0  0  0  0
 34 33  1  0  0  0
 34 35  1  0  0  0
 34 36  1  0  0  0
 34 37  1  0  0  0
 22 23  1  0  0  0
 22 25  1  0  0  0
 22 21  1  0  0  0
 23 24  1  0  0  0
 27 26  1  0  0  0
 27 28  2  0  0  0
 27 31  1  0  0  0
 27 29  1  0  0  0
 25 26  1  0  0  0
 32 33  1  0  0  0
 32 31  1  0  0  0
 29 30  1  0  0  0
 20 21  1  0  0  0
 20  2  1  0  0  0
  1  2  2  0  0  0
  2  3  1  0  0  0
  3  4  1  0  0  0
  4  5  1  0  0  0
  5  6  1  0  0  0
  6  7  1  0  0  0
  7  8  1  0  0  0
  8  9  1  0  0  0
  9 10  1  0  0  0
 10 11  2  0  0  0
 11 12  1  0  0  0
 12 13  1  0  0  0
 13 14  1  0  0  0
 14 15  1  0  0  0
 15 16  1  0  0  0
 16 17  1  0  0  0
 17 18  1  0  0  0
 18 19  1  0  0  0
M  CHG 1  28  -1
M  END
> <minimizedAffinity>
-7.81986

> <CNNscore>
0.7831166983

> <CNNaffinity>
6.5281639099

> <CNN_VS>
5.1123142242

> <CNNaffinity_variance>
0.5215476155

$$$$
/media/chris/experiments/cd1a-new-docking/inputs/ligands/4x6c_ligand.pdb


 37 36  0  0  0  0  0  0  0  0999 V2000
  -38.7969   58.3847   63.0075 O   0  0  0  0  0  0  0  0  0  0  0  0
  -38.9507   58.7109   64.1444 C   0  0  0  0  0  0  0  0  0  0  0  0
  -40.2719   59.0384   64.7596 C   0  0  0  0  0  0  0  0  0  0  0  0
  -40.9895   60.1711   64.0500 C   0  0  0  0  0  0  0  0  0  0  0  0
  -42.4515   60.2707   64.4280 C   0  0  0  0  0  0  0  0  0  0  0  0
  -42.9639   59.1167   65.2572 C   0  0  0  0  0  0  0  0  0  0  0  0
  -44.4364   58.8457   65.0820 C   0  0  0  0  0  0  0  0  0  0  0  0
  -44.7846   57.3989   65.3075 C   0  0  0  0  0  0  0  0  0  0  0  0
  -46.0991   57.1512   65.9865 C   0  0  0  0  0  0  0  0  0  0  0  0
  -46.9524   58.3460   66.0578 C   0  0  0  0  0  0  0  0  0  0  0  0
  -48.0682   58.5831   65.4040 C   0  0  0  0  0  0  0  0  0  0  0  0
  -48.7688   57.6967   64.4408 C   0  0  0  0  0  0  0  0  0  0  0  0
  -48.9707   58.2702   63.0531 C   0  0  0  0  0  0  0  0  0  0  0  0
  -50.3916   58.1490   62.5751 C   0  0  0  0  0  0  0  0  0  0  0  0
  -50.5468   57.5129   61.2175 C   0  0  0  0  0  0  0  0  0  0  0  0
  -49.2616   57.5240   60.4195 C   0  0  0  0  0  0  0  0  0  0  0  0
  -49.4235   57.2315   58.9540 C   0  0  0  0  0  0  0  0  0  0  0  0
  -48.1701   56.7979   58.3057 C   0  0  0  0  0  0  0  0  0  0  0  0
  -47.6248   55.5626   58.8649 C   0  0  0  0  0  0  0  0  0  0  0  0
  -37.9548   58.8351   65.0217 O   0  0  0  0  0  0  0  0  0  0  0  0
  -36.8640   57.8918   64.9314 C   0  0  0  0  0  0  0  0  0  0  0  0
  -35.6430   58.6665   64.4915 C   0  0  0  0  0  0  0  0  0  0  0  0
  -35.6999   58.8843   63.0818 O   0  0  0  0  0  0  0  0  0  0  0  0
  -36.4692   59.4361   62.8707 H   0  0  0  0  0  0  0  0  0  0  0  0
  -35.4536   60.0005   65.1719 C   0  0  0  0  0  0  0  0  0  0  0  0
  -35.5674   61.0414   64.1806 O   0  0  0  0  0  0  0  0  0  0  0  0
  -36.5742   62.2490   64.4204 P   0  0  0  0  0  0  0  0  0  0  0  0
  -37.8128   61.9333   63.6807 O   0  0  0  0  0  0  0  0  0  0  0  0
  -36.6427   62.4651   65.8790 O   0  0  0  0  0  0  0  0  0  0  0  0
  -37.0267   61.6824   66.3042 H   0  0  0  0  0  0  0  0  0  0  0  0
  -35.9410   63.5559   63.7819 O   0  0  0  0  0  0  0  0  0  0  0  0
  -35.0321   64.3675   64.5622 C   0  0  0  0  0  0  0  0  0  0  0  0
  -33.6431   63.8774   64.2217 C   0  0  0  0  0  0  0  0  0  0  0  0
  -32.6661   64.9256   63.7268 N   0  0  0  0  0  0  0  0  0  0  0  0
  -33.3095   65.8333   62.7283 C   0  0  0  0  0  0  0  0  0  0  0  0
  -31.4979   64.2541   63.0790 C   0  0  0  0  0  0  0  0  0  0  0  0
  -32.1855   65.7477   64.8811 C   0  0  0  0  0  0  0  0  0  0  0  0
 34 33  1  0  0  0
 34 35  1  0  0  0
 34 36  1  0  0  0
 34 37  1  0  0  0
 22 23  1  0  0  0
 22 25  1  0  0  0
 22 21  1  0  0  0
 23 24  1  0  0  0
 27 26  1  0  0  0
 27 28  2  0  0  0
 27 31  1  0  0  0
 27 29  1  0  0  0
 25 26  1  0  0  0
 32 33  1  0  0  0
 32 31  1  0  0  0
 29 30  1  0  0  0
 20 21  1  0  0  0
 20  2  1  0  0  0
  1  2  2  0  0  0
  2  3  1  0  0  0
  3  4  1  0  0  0
  4  5  1  0  0  0
  5  6  1  0  0  0
  6  7  1  0  0  0
  7  8  1  0  0  0
  8  9  1  0  0  0
  9 10  1  0  0  0
 10 11  2  0  0  0
 11 12  1  0  0  0
 12 13  1  0  0  0
 13 14  1  0  0  0
 14 15  1  0  0  0
 15 16  1  0  0  0
 16 17  1  0  0  0
 17 18  1  0  0  0
 18 19  1  0  0  0
M  CHG 1  28  -1
M  END
> <minimizedAffinity>
-7.55419

> <CNNscore>
0.7731906176

> <CNNaffinity>
6.4660935402

> <CNN_VS>
4.9995226860

> <CNNaffinity_variance>
0.5982453227

$$$$
/media/chris/experiments/cd1a-new-docking/inputs/ligands/4x6c_ligand.pdb


 37 36  0  0  0  0  0  0  0  0999 V2000
  -41.5355   60.5204   66.2325 O   0  0  0  0  0  0  0  0  0  0  0  0
  -41.6259   60.1437   65.1043 C   0  0  0  0  0  0  0  0  0  0  0  0
  -42.9114   59.7913   64.4301 C   0  0  0  0  0  0  0  0  0  0  0  0
  -43.8445   58.9906   65.3188 C   0  0  0  0  0  0  0  0  0  0  0  0
  -45.2054   59.6339   65.4753 C   0  0  0  0  0  0  0  0  0  0  0  0
  -46.2784   58.7092   66.0000 C   0  0  0  0  0  0  0  0  0  0  0  0
  -47.2579   58.2524   64.9491 C   0  0  0  0  0  0  0  0  0  0  0  0
  -48.6858   58.5296   65.3360 C   0  0  0  0  0  0  0  0  0  0  0  0
  -49.1646   59.9267   65.0731 C   0  0  0  0  0  0  0  0  0  0  0  0
  -48.7544   60.4460   63.7605 C   0  0  0  0  0  0  0  0  0  0  0  0
  -49.4503   60.4658   62.6451 C   0  0  0  0  0  0  0  0  0  0  0  0
  -50.8395   59.9898   62.4264 C   0  0  0  0  0  0  0  0  0  0  0  0
  -50.9868   58.5065   62.1559 C   0  0  0  0  0  0  0  0  0  0  0  0
  -49.8295   57.9393   61.3804 C   0  0  0  0  0  0  0  0  0  0  0  0
  -50.2197   57.0476   60.2296 C   0  0  0  0  0  0  0  0  0  0  0  0
  -49.2183   57.0888   59.0964 C   0  0  0  0  0  0  0  0  0  0  0  0
  -48.2302   55.9561   59.0829 C   0  0  0  0  0  0  0  0  0  0  0  0
  -46.8817   56.3661   58.6441 C   0  0  0  0  0  0  0  0  0  0  0  0
  -46.8830   57.1190   57.3914 C   0  0  0  0  0  0  0  0  0  0  0  0
  -40.5823   59.9783   64.2917 O   0  0  0  0  0  0  0  0  0  0  0  0
  -39.7091   58.8556   64.5464 C   0  0  0  0  0  0  0  0  0  0  0  0
  -38.5272   58.9927   63.6144 C   0  0  0  0  0  0  0  0  0  0  0  0
  -38.8302   59.9494   62.5990 O   0  0  0  0  0  0  0  0  0  0  0  0
  -38.9655   60.8198   63.0050 H   0  0  0  0  0  0  0  0  0  0  0  0
  -37.2335   59.3973   64.2784 C   0  0  0  0  0  0  0  0  0  0  0  0
  -37.5430   60.2003   65.4352 O   0  0  0  0  0  0  0  0  0  0  0  0
  -37.5637   61.7856   65.3094 P   0  0  0  0  0  0  0  0  0  0  0  0
  -36.9838   62.1230   63.9937 O   0  0  0  0  0  0  0  0  0  0  0  0
  -38.9389   62.2213   65.6225 O   0  0  0  0  0  0  0  0  0  0  0  0
  -39.5488   61.8722   64.9539 H   0  0  0  0  0  0  0  0  0  0  0  0
  -36.6153   62.3840   66.4316 O   0  0  0  0  0  0  0  0  0  0  0  0
  -35.2282   61.9761   66.4908 C   0  0  0  0  0  0  0  0  0  0  0  0
  -34.4314   63.2457   66.6879 C   0  0  0  0  0  0  0  0  0  0  0  0
  -33.7662   63.8169   65.4513 N   0  0  0  0  0  0  0  0  0  0  0  0
  -32.4449   64.4313   65.7852 C   0  0  0  0  0  0  0  0  0  0  0  0
  -34.6440   64.8683   64.8517 C   0  0  0  0  0  0  0  0  0  0  0  0
  -33.5477   62.7262   64.4504 C   0  0  0  0  0  0  0  0  0  0  0  0
 34 33  1  0  0  0
 34 35  1  0  0  0
 34 36  1  0  0  0
 34 37  1  0  0  0
 22 23  1  0  0  0
 22 25  1  0  0  0
 22 21  1  0  0  0
 23 24  1  0  0  0
 27 26  1  0  0  0
 27 28  2  0  0  0
 27 31  1  0  0  0
 27 29  1  0  0  0
 25 26  1  0  0  0
 32 33  1  0  0  0
 32 31  1  0  0  0
 29 30  1  0  0  0
 20 21  1  0  0  0
 20  2  1  0  0  0
  1  2  2  0  0  0
  2  3  1  0  0  0
  3  4  1  0  0  0
  4  5  1  0  0  0
  5  6  1  0  0  0
  6  7  1  0  0  0
  7  8  1  0  0  0
  8  9  1  0  0  0
  9 10  1  0  0  0
 10 11  2  0  0  0
 11 12  1  0  0  0
 12 13  1  0  0  0
 13 14  1  0  0  0
 14 15  1  0  0  0
 15 16  1  0  0  0
 16 17  1  0  0  0
 17 18  1  0  0  0
 18 19  1  0  0  0
M  CHG 1  28  -1
M  END
> <minimizedAffinity>
-7.83811

> <CNNscore>
0.7567192316

> <CNNaffinity>
6.4545350075

> <CNN_VS>
4.8842706680

> <CNNaffinity_variance>
0.4022367001

$$$$
/media/chris/experiments/cd1a-new-docking/inputs/ligands/4x6c_ligand.pdb


 37 36  0  0  0  0  0  0  0  0999 V2000
  -40.3189   61.6767   65.8439 O   0  0  0  0  0  0  0  0  0  0  0  0
  -40.8454   60.7169   65.3701 C   0  0  0  0  0  0  0  0  0  0  0  0
  -41.9040   59.9107   66.0487 C   0  0  0  0  0  0  0  0  0  0  0  0
  -42.5151   58.8572   65.1441 C   0  0  0  0  0  0  0  0  0  0  0  0
  -43.3164   57.8218   65.9031 C   0  0  0  0  0  0  0  0  0  0  0  0
  -44.5505   57.3331   65.1820 C   0  0  0  0  0  0  0  0  0  0  0  0
  -45.7728   57.2388   66.0591 C   0  0  0  0  0  0  0  0  0  0  0  0
  -46.3743   58.5869   66.3525 C   0  0  0  0  0  0  0  0  0  0  0  0
  -47.4696   59.0194   65.4233 C   0  0  0  0  0  0  0  0  0  0  0  0
  -48.5184   58.0046   65.2465 C   0  0  0  0  0  0  0  0  0  0  0  0
  -49.6941   58.1477   64.6756 C   0  0  0  0  0  0  0  0  0  0  0  0
  -50.2594   59.3649   64.0406 C   0  0  0  0  0  0  0  0  0  0  0  0
  -50.7460   59.1925   62.6163 C   0  0  0  0  0  0  0  0  0  0  0  0
  -49.8647   58.2811   61.8071 C   0  0  0  0  0  0  0  0  0  0  0  0
  -50.6042   57.3467   60.8842 C   0  0  0  0  0  0  0  0  0  0  0  0
  -50.1735   57.4927   59.4413 C   0  0  0  0  0  0  0  0  0  0  0  0
  -48.7794   57.0149   59.1451 C   0  0  0  0  0  0  0  0  0  0  0  0
  -48.5168   56.8463   57.7023 C   0  0  0  0  0  0  0  0  0  0  0  0
  -47.0936   56.8180   57.3709 C   0  0  0  0  0  0  0  0  0  0  0  0
  -40.5505   60.2281   64.1655 O   0  0  0  0  0  0  0  0  0  0  0  0
  -40.5405   61.1517   63.0543 C   0  0  0  0  0  0  0  0  0  0  0  0
  -39.5965   60.5877   62.0174 C   0  0  0  0  0  0  0  0  0  0  0  0
  -40.0504   60.9501   60.7133 O   0  0  0  0  0  0  0  0  0  0  0  0
  -40.0226   61.9150   60.6179 H   0  0  0  0  0  0  0  0  0  0  0  0
  -38.1582   61.0232   62.1586 C   0  0  0  0  0  0  0  0  0  0  0  0
  -37.4062   59.9405   62.7428 O   0  0  0  0  0  0  0  0  0  0  0  0
  -36.8058   60.1002   64.2069 P   0  0  0  0  0  0  0  0  0  0  0  0
  -37.4873   59.1096   65.0645 O   0  0  0  0  0  0  0  0  0  0  0  0
  -35.3367   60.0473   64.0745 O   0  0  0  0  0  0  0  0  0  0  0  0
  -35.0726   59.1723   63.7497 H   0  0  0  0  0  0  0  0  0  0  0  0
  -37.1770   61.5479   64.7392 O   0  0  0  0  0  0  0  0  0  0  0  0
  -36.1231   62.4717   65.0993 C   0  0  0  0  0  0  0  0  0  0  0  0
  -35.9050   63.3448   63.8846 C   0  0  0  0  0  0  0  0  0  0  0  0
  -34.6483   64.1925   63.8866 N   0  0  0  0  0  0  0  0  0  0  0  0
  -34.4832   64.9085   65.1885 C   0  0  0  0  0  0  0  0  0  0  0  0
  -34.7271   65.2063   62.7905 C   0  0  0  0  0  0  0  0  0  0  0  0
  -33.4537   63.3186   63.6661 C   0  0  0  0  0  0  0  0  0  0  0  0
 34 33  1  0  0  0
 34 35  1  0  0  0
 34 36  1  0  0  0
 34 37  1  0  0  0
 22 23  1  0  0  0
 22 25  1  0  0  0
 22 21  1  0  0  0
 23 24  1  0  0  0
 27 26  1  0  0  0
 27 28  2  0  0  0
 27 31  1  0  0  0
 27 29  1  0  0  0
 25 26  1  0  0  0
 32 33  1  0  0  0
 32 31  1  0  0  0
 29 30  1  0  0  0
 20 21  1  0  0  0
 20  2  1  0  0  0
  1  2  2  0  0  0
  2  3  1  0  0  0
  3  4  1  0  0  0
  4  5  1  0  0  0
  5  6  1  0  0  0
  6  7  1  0  0  0
  7  8  1  0  0  0
  8  9  1  0  0  0
  9 10  1  0  0  0
 10 11  2  0  0  0
 11 12  1  0  0  0
 12 13  1  0  0  0
 13 14  1  0  0  0
 14 15  1  0  0  0
 15 16  1  0  0  0
 16 17  1  0  0  0
 17 18  1  0  0  0
 18 19  1  0  0  0
M  CHG 1  28  -1
M  END
> <minimizedAffinity>
-7.75672

> <CNNscore>
0.7525252700

> <CNNaffinity>
6.6876001358

> <CNN_VS>
5.0325880051

> <CNNaffinity_variance>
1.3669886589

$$$$
/media/chris/experiments/cd1a-new-docking/inputs/ligands/4x6c_ligand.pdb


 37 36  0  0  0  0  0  0  0  0999 V2000
  -39.7771   59.8375   63.4600 O   0  0  0  0  0  0  0  0  0  0  0  0
  -39.9805   59.0371   64.3208 C   0  0  0  0  0  0  0  0  0  0  0  0
  -41.1525   59.0689   65.2462 C   0  0  0  0  0  0  0  0  0  0  0  0
  -42.1800   60.1169   64.8625 C   0  0  0  0  0  0  0  0  0  0  0  0
  -43.6018   59.6039   64.9394 C   0  0  0  0  0  0  0  0  0  0  0  0
  -43.7204   58.1351   65.2714 C   0  0  0  0  0  0  0  0  0  0  0  0
  -44.9598   57.4818   64.7152 C   0  0  0  0  0  0  0  0  0  0  0  0
  -45.9275   57.0749   65.7938 C   0  0  0  0  0  0  0  0  0  0  0  0
  -47.3791   57.1919   65.4342 C   0  0  0  0  0  0  0  0  0  0  0  0
  -47.8450   58.5827   65.3366 C   0  0  0  0  0  0  0  0  0  0  0  0
  -48.8756   59.0450   64.6637 C   0  0  0  0  0  0  0  0  0  0  0  0
  -49.8505   58.2799   63.8460 C   0  0  0  0  0  0  0  0  0  0  0  0
  -49.4303   58.0046   62.4167 C   0  0  0  0  0  0  0  0  0  0  0  0
  -50.5960   57.6995   61.5165 C   0  0  0  0  0  0  0  0  0  0  0  0
  -50.2258   57.0631   60.2013 C   0  0  0  0  0  0  0  0  0  0  0  0
  -48.7338   56.8629   60.0514 C   0  0  0  0  0  0  0  0  0  0  0  0
  -48.3277   55.9344   58.9413 C   0  0  0  0  0  0  0  0  0  0  0  0
  -48.2082   56.6089   57.6336 C   0  0  0  0  0  0  0  0  0  0  0  0
  -46.8788   57.1635   57.3862 C   0  0  0  0  0  0  0  0  0  0  0  0
  -39.1778   58.0045   64.5780 O   0  0  0  0  0  0  0  0  0  0  0  0
  -38.2094   57.6437   63.5681 C   0  0  0  0  0  0  0  0  0  0  0  0
  -36.8764   58.2001   64.0130 C   0  0  0  0  0  0  0  0  0  0  0  0
  -37.0537   58.9636   65.2062 O   0  0  0  0  0  0  0  0  0  0  0  0
  -37.3634   58.3828   65.9186 H   0  0  0  0  0  0  0  0  0  0  0  0
  -35.8048   57.1672   64.2639 C   0  0  0  0  0  0  0  0  0  0  0  0
  -34.6693   57.8209   64.8657 O   0  0  0  0  0  0  0  0  0  0  0  0
  -33.5103   58.3946   63.9400 P   0  0  0  0  0  0  0  0  0  0  0  0
  -32.2370   58.1776   64.6560 O   0  0  0  0  0  0  0  0  0  0  0  0
  -33.6951   57.7961   62.6034 O   0  0  0  0  0  0  0  0  0  0  0  0
  -33.5695   56.8359   62.6590 H   0  0  0  0  0  0  0  0  0  0  0  0
  -33.7269   59.9588   63.7874 O   0  0  0  0  0  0  0  0  0  0  0  0
  -34.1175   60.7445   64.9380 C   0  0  0  0  0  0  0  0  0  0  0  0
  -33.9371   62.1898   64.5329 C   0  0  0  0  0  0  0  0  0  0  0  0
  -35.1115   63.1108   64.7983 N   0  0  0  0  0  0  0  0  0  0  0  0
  -35.8953   63.3583   63.5496 C   0  0  0  0  0  0  0  0  0  0  0  0
  -34.6122   64.4213   65.3167 C   0  0  0  0  0  0  0  0  0  0  0  0
  -36.0159   62.4895   65.8159 C   0  0  0  0  0  0  0  0  0  0  0  0
 34 33  1  0  0  0
 34 35  1  0  0  0
 34 36  1  0  0  0
 34 37  1  0  0  0
 22 23  1  0  0  0
 22 25  1  0  0  0
 22 21  1  0  0  0
 23 24  1  0  0  0
 27 26  1  0  0  0
 27 28  2  0  0  0
 27 31  1  0  0  0
 27 29  1  0  0  0
 25 26  1  0  0  0
 32 33  1  0  0  0
 32 31  1  0  0  0
 29 30  1  0  0  0
 20 21  1  0  0  0
 20  2  1  0  0  0
  1  2  2  0  0  0
  2  3  1  0  0  0
  3  4  1  0  0  0
  4  5  1  0  0  0
  5  6  1  0  0  0
  6  7  1  0  0  0
  7  8  1  0  0  0
  8  9  1  0  0  0
  9 10  1  0  0  0
 10 11  2  0  0  0
 11 12  1  0  0  0
 12 13  1  0  0  0
 13 14  1  0  0  0
 14 15  1  0  0  0
 15 16  1  0  0  0
 16 17  1  0  0  0
 17 18  1  0  0  0
 18 19  1  0  0  0
M  CHG 1  28  -1
M  END
> <minimizedAffinity>
-7.54521

> <CNNscore>
0.7406615019

> <CNNaffinity>
6.7293686867

> <CNN_VS>
4.9841842651

> <CNNaffinity_variance>
0.7696177959

$$$$
/media/chris/experiments/cd1a-new-docking/inputs/ligands/4x6c_ligand.pdb


 37 36  0  0  0  0  0  0  0  0999 V2000
  -41.8101   58.4910   66.4422 O   0  0  0  0  0  0  0  0  0  0  0  0
  -42.4002   59.4075   65.9581 C   0  0  0  0  0  0  0  0  0  0  0  0
  -43.8638   59.4089   65.6598 C   0  0  0  0  0  0  0  0  0  0  0  0
  -44.2447   58.4297   64.5655 C   0  0  0  0  0  0  0  0  0  0  0  0
  -44.8466   57.1496   65.1036 C   0  0  0  0  0  0  0  0  0  0  0  0
  -45.9482   57.3534   66.1168 C   0  0  0  0  0  0  0  0  0  0  0  0
  -47.3159   56.9618   65.6185 C   0  0  0  0  0  0  0  0  0  0  0  0
  -47.9973   58.0787   64.8745 C   0  0  0  0  0  0  0  0  0  0  0  0
  -49.4934   57.9907   64.8099 C   0  0  0  0  0  0  0  0  0  0  0  0
  -50.1681   59.2325   65.2145 C   0  0  0  0  0  0  0  0  0  0  0  0
  -50.8537   60.0631   64.4604 C   0  0  0  0  0  0  0  0  0  0  0  0
  -51.1442   59.9514   63.0087 C   0  0  0  0  0  0  0  0  0  0  0  0
  -49.9895   60.2797   62.0844 C   0  0  0  0  0  0  0  0  0  0  0  0
  -49.8308   59.2778   60.9739 C   0  0  0  0  0  0  0  0  0  0  0  0
  -50.5295   57.9629   61.2080 C   0  0  0  0  0  0  0  0  0  0  0  0
  -50.2257   56.9433   60.1324 C   0  0  0  0  0  0  0  0  0  0  0  0
  -48.7919   56.9049   59.6829 C   0  0  0  0  0  0  0  0  0  0  0  0
  -48.6445   56.7800   58.2194 C   0  0  0  0  0  0  0  0  0  0  0  0
  -47.3211   57.1666   57.7344 C   0  0  0  0  0  0  0  0  0  0  0  0
  -41.8255   60.5584   65.6090 O   0  0  0  0  0  0  0  0  0  0  0  0
  -40.8694   60.5258   64.5260 C   0  0  0  0  0  0  0  0  0  0  0  0
  -39.8118   61.5598   64.8369 C   0  0  0  0  0  0  0  0  0  0  0  0
  -40.2837   62.4287   65.8666 O   0  0  0  0  0  0  0  0  0  0  0  0
  -40.4219   61.9200   66.6808 H   0  0  0  0  0  0  0  0  0  0  0  0
  -38.4762   60.9997   65.2622 C   0  0  0  0  0  0  0  0  0  0  0  0
  -37.7576   62.0224   65.9810 O   0  0  0  0  0  0  0  0  0  0  0  0
  -36.1693   61.9705   66.0444 P   0  0  0  0  0  0  0  0  0  0  0  0
  -35.6652   63.0098   65.1242 O   0  0  0  0  0  0  0  0  0  0  0  0
  -35.7963   62.0308   67.4713 O   0  0  0  0  0  0  0  0  0  0  0  0
  -36.0708   62.8844   67.8415 H   0  0  0  0  0  0  0  0  0  0  0  0
  -35.6975   60.5587   65.4957 O   0  0  0  0  0  0  0  0  0  0  0  0
  -35.0074   60.4765   64.2265 C   0  0  0  0  0  0  0  0  0  0  0  0
  -34.4274   59.0820   64.1603 C   0  0  0  0  0  0  0  0  0  0  0  0
  -35.2942   58.0272   63.5016 N   0  0  0  0  0  0  0  0  0  0  0  0
  -35.8842   57.1029   64.5177 C   0  0  0  0  0  0  0  0  0  0  0  0
  -34.4679   57.2246   62.5484 C   0  0  0  0  0  0  0  0  0  0  0  0
  -36.4080   58.6895   62.7531 C   0  0  0  0  0  0  0  0  0  0  0  0
 34 33  1  0  0  0
 34 35  1  0  0  0
 34 36  1  0  0  0
 34 37  1  0  0  0
 22 23  1  0  0  0
 22 25  1  0  0  0
 22 21  1  0  0  0
 23 24  1  0  0  0
 27 26  1  0  0  0
 27 28  2  0  0  0
 27 31  1  0  0  0
 27 29  1  0  0  0
 25 26  1  0  0  0
 32 33  1  0  0  0
 32 31  1  0  0  0
 29 30  1  0  0  0
 20 21  1  0  0  0
 20  2  1  0  0  0
  1  2  2  0  0  0
  2  3  1  0  0  0
  3  4  1  0  0  0
  4  5  1  0  0  0
  5  6  1  0  0  0
  6  7  1  0  0  0
  7  8  1  0  0  0
  8  9  1  0  0  0
  9 10  1  0  0  0
 10 11  2  0  0  0
 11 12  1  0  0  0
 12 13  1  0  0  0
 13 14  1  0  0  0
 14 15  1  0  0  0
 15 16  1  0  0  0
 16 17  1  0  0  0
 17 18  1  0  0  0
 18 19  1  0  0  0
M  CHG 1  28  -1
M  END
> <minimizedAffinity>
-8.24947

> <CNNscore>
0.7093758583

> <CNNaffinity>
6.6424131393

> <CNN_VS>
4.7119674683

> <CNNaffinity_variance>
0.3648541868

$$$$
