/media/chris/experiments/cd1a-new-docking/inputs/ligands/4x6c_ligand.pdb


 37 36  0  0  0  0  0  0  0  0999 V2000
  -42.4425   57.3383   66.2505 O   0  0  0  0  0  0  0  0  0  0  0  0
  -42.7304   58.2743   65.5692 C   0  0  0  0  0  0  0  0  0  0  0  0
  -44.0990   58.5426   65.0346 C   0  0  0  0  0  0  0  0  0  0  0  0
  -44.9683   57.3003   64.9858 C   0  0  0  0  0  0  0  0  0  0  0  0
  -46.0267   57.2788   66.0674 C   0  0  0  0  0  0  0  0  0  0  0  0
  -46.5319   58.6425   66.4761 C   0  0  0  0  0  0  0  0  0  0  0  0
  -47.5916   59.2004   65.5606 C   0  0  0  0  0  0  0  0  0  0  0  0
  -48.3631   58.1207   64.8505 C   0  0  0  0  0  0  0  0  0  0  0  0
  -49.8394   58.1036   65.1154 C   0  0  0  0  0  0  0  0  0  0  0  0
  -50.4147   59.4443   65.2956 C   0  0  0  0  0  0  0  0  0  0  0  0
  -50.9683   60.2158   64.3861 C   0  0  0  0  0  0  0  0  0  0  0  0
  -51.1770   59.9245   62.9454 C   0  0  0  0  0  0  0  0  0  0  0  0
  -50.0302   60.3016   62.0300 C   0  0  0  0  0  0  0  0  0  0  0  0
  -49.7002   59.2219   61.0363 C   0  0  0  0  0  0  0  0  0  0  0  0
  -50.2140   57.8526   61.4006 C   0  0  0  0  0  0  0  0  0  0  0  0
  -50.4010   56.9612   60.1927 C   0  0  0  0  0  0  0  0  0  0  0  0
  -49.3689   57.1323   59.1134 C   0  0  0  0  0  0  0  0  0  0  0  0
  -48.1706   56.2943   59.3166 C   0  0  0  0  0  0  0  0  0  0  0  0
  -47.2270   56.3511   58.2019 C   0  0  0  0  0  0  0  0  0  0  0  0
  -41.8599   59.2078   65.1852 O   0  0  0  0  0  0  0  0  0  0  0  0
  -41.6460   60.3271   66.0737 C   0  0  0  0  0  0  0  0  0  0  0  0
  -40.6235   61.2257   65.4166 C   0  0  0  0  0  0  0  0  0  0  0  0
  -40.5902   62.4827   66.0925 O   0  0  0  0  0  0  0  0  0  0  0  0
  -40.2959   62.3502   67.0073 H   0  0  0  0  0  0  0  0  0  0  0  0
  -39.2201   60.6716   65.3730 C   0  0  0  0  0  0  0  0  0  0  0  0
  -38.3083   61.7529   65.0937 O   0  0  0  0  0  0  0  0  0  0  0  0
  -36.8044   61.6650   65.6032 P   0  0  0  0  0  0  0  0  0  0  0  0
  -36.1793   62.9760   65.3355 O   0  0  0  0  0  0  0  0  0  0  0  0
  -36.8516   61.1603   66.9896 O   0  0  0  0  0  0  0  0  0  0  0  0
  -37.3084   61.8044   67.5528 H   0  0  0  0  0  0  0  0  0  0  0  0
  -36.0494   60.5745   64.7325 O   0  0  0  0  0  0  0  0  0  0  0  0
  -36.4391   60.3606   63.3555 C   0  0  0  0  0  0  0  0  0  0  0  0
  -36.2872   58.8770   63.1080 C   0  0  0  0  0  0  0  0  0  0  0  0
  -37.4369   58.1967   62.3915 N   0  0  0  0  0  0  0  0  0  0  0  0
  -36.9612   57.0134   61.6116 C   0  0  0  0  0  0  0  0  0  0  0  0
  -38.0805   59.1627   61.4492 C   0  0  0  0  0  0  0  0  0  0  0  0
  -38.4486   57.7348   63.3927 C   0  0  0  0  0  0  0  0  0  0  0  0
 34 33  1  0  0  0
 34 35  1  0  0  0
 34 36  1  0  0  0
 34 37  1  0  0  0
 22 23  1  0  0  0
 22 25  1  0  0  0
 22 21  1  0  0  0
 23 24  1  0  0  0
 27 26  1  0  0  0
 27 28  2  0  0  0
 27 31  1  0  0  0
 27 29  1  0  0  0
 25 26  1  0  0  0
 32 33  1  0  0  0
 32 31  1  0  0  0
 29 30  1  0  0  0
 20 21  1  0  0  0
 20  2  1  0  0  0
  1  2  2  0  0  0
  2  3  1  0  0  0
  3  4  1  0  0  0
  4  5  1  0  0  0
  5  6  1  0  0  0
  6  7  1  0  0  0
  7  8  1  0  0  0
  8  9  1  0  0  0
  9 10  1  0  0  0
 10 11  2  0  0  0
 11 12  1  0  0  0
 12 13  1  0  0  0
 13 14  1  0  0  0
 14 15  1  0  0  0
 15 16  1  0  0  0
 16 17  1  0  0  0
 17 18  1  0  0  0
 18 19  1  0  0  0
M  CHG 1  28  -1
M  END
> <minimizedAffinity>
-8.26718

> <CNNscore>
0.8652909994

> <CNNaffinity>
7.0637483597

> <CNN_VS>
6.1121978760

> <CNNaffinity_variance>
0.3374249041

$$$$
/media/chris/experiments/cd1a-new-docking/inputs/ligands/4x6c_ligand.pdb


 37 36  0  0  0  0  0  0  0  0999 V2000
  -42.0092   57.7340   65.7317 O   0  0  0  0  0  0  0  0  0  0  0  0
  -42.7418   58.6204   65.4143 C   0  0  0  0  0  0  0  0  0  0  0  0
  -44.1945   58.4501   65.1112 C   0  0  0  0  0  0  0  0  0  0  0  0
  -44.7146   57.0704   65.4679 C   0  0  0  0  0  0  0  0  0  0  0  0
  -46.0456   57.1102   66.1870 C   0  0  0  0  0  0  0  0  0  0  0  0
  -46.4876   58.4913   66.6102 C   0  0  0  0  0  0  0  0  0  0  0  0
  -47.7375   58.9712   65.9175 C   0  0  0  0  0  0  0  0  0  0  0  0
  -48.3545   57.9100   65.0466 C   0  0  0  0  0  0  0  0  0  0  0  0
  -49.8463   57.9792   64.9061 C   0  0  0  0  0  0  0  0  0  0  0  0
  -50.3990   59.3076   65.2075 C   0  0  0  0  0  0  0  0  0  0  0  0
  -50.9072   60.1819   64.3671 C   0  0  0  0  0  0  0  0  0  0  0  0
  -51.0759   60.0458   62.8984 C   0  0  0  0  0  0  0  0  0  0  0  0
  -49.8231   60.2616   62.0742 C   0  0  0  0  0  0  0  0  0  0  0  0
  -49.7771   59.3922   60.8478 C   0  0  0  0  0  0  0  0  0  0  0  0
  -49.9941   57.9237   61.1086 C   0  0  0  0  0  0  0  0  0  0  0  0
  -49.8694   57.0857   59.8553 C   0  0  0  0  0  0  0  0  0  0  0  0
  -49.0378   55.8424   60.0049 C   0  0  0  0  0  0  0  0  0  0  0  0
  -47.9393   55.7559   59.0224 C   0  0  0  0  0  0  0  0  0  0  0  0
  -47.8332   56.9353   58.1655 C   0  0  0  0  0  0  0  0  0  0  0  0
  -42.3560   59.8891   65.2793 O   0  0  0  0  0  0  0  0  0  0  0  0
  -41.0193   60.2299   65.7095 C   0  0  0  0  0  0  0  0  0  0  0  0
  -40.6398   61.5117   65.0041 C   0  0  0  0  0  0  0  0  0  0  0  0
  -40.3668   62.5249   65.9721 O   0  0  0  0  0  0  0  0  0  0  0  0
  -39.5996   62.2641   66.5055 H   0  0  0  0  0  0  0  0  0  0  0  0
  -39.4513   61.4043   64.0797 C   0  0  0  0  0  0  0  0  0  0  0  0
  -39.7758   60.4815   63.0205 O   0  0  0  0  0  0  0  0  0  0  0  0
  -38.8433   60.4008   61.7347 P   0  0  0  0  0  0  0  0  0  0  0  0
  -39.7137   60.5886   60.5564 O   0  0  0  0  0  0  0  0  0  0  0  0
  -37.7243   61.3371   61.9588 O   0  0  0  0  0  0  0  0  0  0  0  0
  -38.0661   62.2434   62.0093 H   0  0  0  0  0  0  0  0  0  0  0  0
  -38.2262   58.9411   61.6611 O   0  0  0  0  0  0  0  0  0  0  0  0
  -38.3458   58.0537   62.7977 C   0  0  0  0  0  0  0  0  0  0  0  0
  -36.9832   57.4238   62.9763 C   0  0  0  0  0  0  0  0  0  0  0  0
  -36.1553   57.9373   64.1377 N   0  0  0  0  0  0  0  0  0  0  0  0
  -35.0110   58.7706   63.6570 C   0  0  0  0  0  0  0  0  0  0  0  0
  -35.6113   56.7810   64.9138 C   0  0  0  0  0  0  0  0  0  0  0  0
  -37.0133   58.7738   65.0339 C   0  0  0  0  0  0  0  0  0  0  0  0
 34 33  1  0  0  0
 34 35  1  0  0  0
 34 36  1  0  0  0
 34 37  1  0  0  0
 22 23  1  0  0  0
 22 25  1  0  0  0
 22 21  1  0  0  0
 23 24  1  0  0  0
 27 26  1  0  0  0
 27 28  2  0  0  0
 27 31  1  0  0  0
 27 29  1  0  0  0
 25 26  1  0  0  0
 32 33  1  0  0  0
 32 31  1  0  0  0
 29 30  1  0  0  0
 20 21  1  0  0  0
 20  2  1  0  0  0
  1  2  2  0  0  0
  2  3  1  0  0  0
  3  4  1  0  0  0
  4  5  1  0  0  0
  5  6  1  0  0  0
  6  7  1  0  0  0
  7  8  1  0  0  0
  8  9  1  0  0  0
  9 10  1  0  0  0
 10 11  2  0  0  0
 11 12  1  0  0  0
 12 13  1  0  0  0
 13 14  1  0  0  0
 14 15  1  0  0  0
 15 16  1  0  0  0
 16 17  1  0  0  0
 17 18  1  0  0  0
 18 19  1  0  0  0
M  CHG 1  28  -1
M  END
> <minimizedAffinity>
-8.50147

> <CNNscore>
0.8234357238

> <CNNaffinity>
6.9986014366

> <CNN_VS>
5.7628984451

> <CNNaffinity_variance>
0.4554436803

$$$$
/media/chris/experiments/cd1a-new-docking/inputs/ligands/4x6c_ligand.pdb


 37 36  0  0  0  0  0  0  0  0999 V2000
  -40.9312   61.2662   65.7414 O   0  0  0  0  0  0  0  0  0  0  0  0
  -41.2492   60.3114   65.1008 C   0  0  0  0  0  0  0  0  0  0  0  0
  -41.8123   59.0542   65.6784 C   0  0  0  0  0  0  0  0  0  0  0  0
  -43.2566   58.8162   65.2799 C   0  0  0  0  0  0  0  0  0  0  0  0
  -43.6876   57.3765   65.4590 C   0  0  0  0  0  0  0  0  0  0  0  0
  -45.1831   57.1740   65.5238 C   0  0  0  0  0  0  0  0  0  0  0  0
  -45.9805   58.3465   65.0124 C   0  0  0  0  0  0  0  0  0  0  0  0
  -47.3364   58.4442   65.6585 C   0  0  0  0  0  0  0  0  0  0  0  0
  -47.7453   59.8206   66.0926 C   0  0  0  0  0  0  0  0  0  0  0  0
  -47.5875   60.8346   65.0400 C   0  0  0  0  0  0  0  0  0  0  0  0
  -48.4409   61.1569   64.0932 C   0  0  0  0  0  0  0  0  0  0  0  0
  -49.7951   60.5969   63.8544 C   0  0  0  0  0  0  0  0  0  0  0  0
  -49.9934   59.9158   62.5158 C   0  0  0  0  0  0  0  0  0  0  0  0
  -50.4311   58.4833   62.6515 C   0  0  0  0  0  0  0  0  0  0  0  0
  -50.6849   57.7760   61.3450 C   0  0  0  0  0  0  0  0  0  0  0  0
  -49.7098   58.1851   60.2631 C   0  0  0  0  0  0  0  0  0  0  0  0
  -49.8046   57.3895   58.9912 C   0  0  0  0  0  0  0  0  0  0  0  0
  -48.4916   56.9414   58.4866 C   0  0  0  0  0  0  0  0  0  0  0  0
  -47.8818   55.8950   59.3049 C   0  0  0  0  0  0  0  0  0  0  0  0
  -41.1358   60.2365   63.7749 O   0  0  0  0  0  0  0  0  0  0  0  0
  -40.3630   61.2617   63.1118 C   0  0  0  0  0  0  0  0  0  0  0  0
  -39.5757   60.5834   62.0143 C   0  0  0  0  0  0  0  0  0  0  0  0
  -40.1090   60.9587   60.7443 O   0  0  0  0  0  0  0  0  0  0  0  0
  -39.9972   61.9138   60.6162 H   0  0  0  0  0  0  0  0  0  0  0  0
  -38.0952   60.8780   62.0145 C   0  0  0  0  0  0  0  0  0  0  0  0
  -37.3933   59.7012   62.4630 O   0  0  0  0  0  0  0  0  0  0  0  0
  -37.2569   58.4490   61.4922 P   0  0  0  0  0  0  0  0  0  0  0  0
  -37.9050   57.3059   62.1664 O   0  0  0  0  0  0  0  0  0  0  0  0
  -37.7511   58.8781   60.1690 O   0  0  0  0  0  0  0  0  0  0  0  0
  -38.6951   59.0925   60.2304 H   0  0  0  0  0  0  0  0  0  0  0  0
  -35.7147   58.1131   61.3306 O   0  0  0  0  0  0  0  0  0  0  0  0
  -35.0698   57.2302   62.2784 C   0  0  0  0  0  0  0  0  0  0  0  0
  -33.9992   58.0577   62.9527 C   0  0  0  0  0  0  0  0  0  0  0  0
  -34.2902   58.4994   64.3733 N   0  0  0  0  0  0  0  0  0  0  0  0
  -33.1334   58.2109   65.2751 C   0  0  0  0  0  0  0  0  0  0  0  0
  -35.4902   57.7709   64.8876 C   0  0  0  0  0  0  0  0  0  0  0  0
  -34.5589   59.9714   64.3956 C   0  0  0  0  0  0  0  0  0  0  0  0
 34 33  1  0  0  0
 34 35  1  0  0  0
 34 36  1  0  0  0
 34 37  1  0  0  0
 22 23  1  0  0  0
 22 25  1  0  0  0
 22 21  1  0  0  0
 23 24  1  0  0  0
 27 26  1  0  0  0
 27 28  2  0  0  0
 27 31  1  0  0  0
 27 29  1  0  0  0
 25 26  1  0  0  0
 32 33  1  0  0  0
 32 31  1  0  0  0
 29 30  1  0  0  0
 20 21  1  0  0  0
 20  2  1  0  0  0
  1  2  2  0  0  0
  2  3  1  0  0  0
  3  4  1  0  0  0
  4  5  1  0  0  0
  5  6  1  0  0  0
  6  7  1  0  0  0
  7  8  1  0  0  0
  8  9  1  0  0  0
  9 10  1  0  0  0
 10 11  2  0  0  0
 11 12  1  0  0  0
 12 13  1  0  0  0
 13 14  1  0  0  0
 14 15  1  0  0  0
 15 16  1  0  0  0
 16 17  1  0  0  0
 17 18  1  0  0  0
 18 19  1  0  0  0
M  CHG 1  28  -1
M  END
> <minimizedAffinity>
-8.10909

> <CNNscore>
0.7506445646

> <CNNaffinity>
6.5874571800

> <CNN_VS>
4.9448390007

> <CNNaffinity_variance>
0.5986121893

$$$$
/media/chris/experiments/cd1a-new-docking/inputs/ligands/4x6c_ligand.pdb


 37 36  0  0  0  0  0  0  0  0999 V2000
  -41.8033   61.1339   63.2718 O   0  0  0  0  0  0  0  0  0  0  0  0
  -41.9736   60.5444   64.2948 C   0  0  0  0  0  0  0  0  0  0  0  0
  -43.2994   60.0557   64.7791 C   0  0  0  0  0  0  0  0  0  0  0  0
  -43.2967   58.5764   65.1157 C   0  0  0  0  0  0  0  0  0  0  0  0
  -44.6178   57.9016   64.8164 C   0  0  0  0  0  0  0  0  0  0  0  0
  -45.3312   57.3554   66.0307 C   0  0  0  0  0  0  0  0  0  0  0  0
  -46.7310   57.8864   66.2065 C   0  0  0  0  0  0  0  0  0  0  0  0
  -46.7936   59.3864   66.0988 C   0  0  0  0  0  0  0  0  0  0  0  0
  -48.0021   59.9318   65.3972 C   0  0  0  0  0  0  0  0  0  0  0  0
  -49.2067   59.1113   65.5883 C   0  0  0  0  0  0  0  0  0  0  0  0
  -50.3950   59.2819   65.0518 C   0  0  0  0  0  0  0  0  0  0  0  0
  -50.8231   60.3340   64.0957 C   0  0  0  0  0  0  0  0  0  0  0  0
  -51.1775   59.8478   62.7052 C   0  0  0  0  0  0  0  0  0  0  0  0
  -50.0036   59.2458   61.9830 C   0  0  0  0  0  0  0  0  0  0  0  0
  -50.0609   57.7478   61.8275 C   0  0  0  0  0  0  0  0  0  0  0  0
  -50.8009   57.3204   60.5791 C   0  0  0  0  0  0  0  0  0  0  0  0
  -50.0618   57.5584   59.2920 C   0  0  0  0  0  0  0  0  0  0  0  0
  -48.9877   56.5755   59.0481 C   0  0  0  0  0  0  0  0  0  0  0  0
  -47.9164   57.0864   58.1950 C   0  0  0  0  0  0  0  0  0  0  0  0
  -40.9966   60.2485   65.1518 O   0  0  0  0  0  0  0  0  0  0  0  0
  -40.1381   61.3273   65.5841 C   0  0  0  0  0  0  0  0  0  0  0  0
  -38.7306   60.9687   65.1659 C   0  0  0  0  0  0  0  0  0  0  0  0
  -37.9055   60.8491   66.3248 O   0  0  0  0  0  0  0  0  0  0  0  0
  -38.2261   60.1178   66.8758 H   0  0  0  0  0  0  0  0  0  0  0  0
  -38.6076   59.6977   64.3611 C   0  0  0  0  0  0  0  0  0  0  0  0
  -38.4101   60.0485   62.9767 O   0  0  0  0  0  0  0  0  0  0  0  0
  -37.8767   58.9519   61.9558 P   0  0  0  0  0  0  0  0  0  0  0  0
  -38.2219   57.6313   62.5197 O   0  0  0  0  0  0  0  0  0  0  0  0
  -38.3923   59.3219   60.6230 O   0  0  0  0  0  0  0  0  0  0  0  0
  -39.3607   59.2664   60.6241 H   0  0  0  0  0  0  0  0  0  0  0  0
  -36.2951   59.0606   61.8936 O   0  0  0  0  0  0  0  0  0  0  0  0
  -35.4819   57.9435   62.3233 C   0  0  0  0  0  0  0  0  0  0  0  0
  -34.3240   58.5442   63.0874 C   0  0  0  0  0  0  0  0  0  0  0  0
  -34.4406   58.5311   64.5987 N   0  0  0  0  0  0  0  0  0  0  0  0
  -33.1713   58.0607   65.2332 C   0  0  0  0  0  0  0  0  0  0  0  0
  -35.5476   57.6129   65.0070 C   0  0  0  0  0  0  0  0  0  0  0  0
  -34.7381   59.9127   65.0906 C   0  0  0  0  0  0  0  0  0  0  0  0
 34 33  1  0  0  0
 34 35  1  0  0  0
 34 36  1  0  0  0
 34 37  1  0  0  0
 22 23  1  0  0  0
 22 25  1  0  0  0
 22 21  1  0  0  0
 23 24  1  0  0  0
 27 26  1  0  0  0
 27 28  2  0  0  0
 27 31  1  0  0  0
 27 29  1  0  0  0
 25 26  1  0  0  0
 32 33  1  0  0  0
 32 31  1  0  0  0
 29 30  1  0  0  0
 20 21  1  0  0  0
 20  2  1  0  0  0
  1  2  2  0  0  0
  2  3  1  0  0  0
  3  4  1  0  0  0
  4  5  1  0  0  0
  5  6  1  0  0  0
  6  7  1  0  0  0
  7  8  1  0  0  0
  8  9  1  0  0  0
  9 10  1  0  0  0
 10 11  2  0  0  0
 11 12  1  0  0  0
 12 13  1  0  0  0
 13 14  1  0  0  0
 14 15  1  0  0  0
 15 16  1  0  0  0
 16 17  1  0  0  0
 17 18  1  0  0  0
 18 19  1  0  0  0
M  CHG 1  28  -1
M  END
> <minimizedAffinity>
-7.78410

> <CNNscore>
0.7387803197

> <CNNaffinity>
6.6998186111

> <CNN_VS>
4.9496941566

> <CNNaffinity_variance>
0.5249989629

$$$$
/media/chris/experiments/cd1a-new-docking/inputs/ligands/4x6c_ligand.pdb


 37 36  0  0  0  0  0  0  0  0999 V2000
  -42.8854   57.9007   65.6668 O   0  0  0  0  0  0  0  0  0  0  0  0
  -43.2593   59.0106   65.4404 C   0  0  0  0  0  0  0  0  0  0  0  0
  -44.6931   59.4143   65.3288 C   0  0  0  0  0  0  0  0  0  0  0  0
  -45.4987   59.0821   66.5706 C   0  0  0  0  0  0  0  0  0  0  0  0
  -46.9886   59.0299   66.3099 C   0  0  0  0  0  0  0  0  0  0  0  0
  -47.3647   58.8794   64.8546 C   0  0  0  0  0  0  0  0  0  0  0  0
  -48.4744   57.8888   64.6103 C   0  0  0  0  0  0  0  0  0  0  0  0
  -49.7882   58.3452   65.1855 C   0  0  0  0  0  0  0  0  0  0  0  0
  -50.1183   59.7923   64.9683 C   0  0  0  0  0  0  0  0  0  0  0  0
  -51.1741   60.0054   63.9679 C   0  0  0  0  0  0  0  0  0  0  0  0
  -51.0350   60.2147   62.6773 C   0  0  0  0  0  0  0  0  0  0  0  0
  -49.7769   60.2674   61.8908 C   0  0  0  0  0  0  0  0  0  0  0  0
  -49.5893   59.1515   60.8833 C   0  0  0  0  0  0  0  0  0  0  0  0
  -50.1763   57.8462   61.3455 C   0  0  0  0  0  0  0  0  0  0  0  0
  -50.3820   56.8270   60.2543 C   0  0  0  0  0  0  0  0  0  0  0  0
  -49.3755   56.9638   59.1333 C   0  0  0  0  0  0  0  0  0  0  0  0
  -48.3304   55.8844   59.0852 C   0  0  0  0  0  0  0  0  0  0  0  0
  -46.9837   56.3932   58.7584 C   0  0  0  0  0  0  0  0  0  0  0  0
  -46.9232   57.0933   57.4768 C   0  0  0  0  0  0  0  0  0  0  0  0
  -42.4403   60.0444   65.2477 O   0  0  0  0  0  0  0  0  0  0  0  0
  -41.3282   60.1940   66.1581 C   0  0  0  0  0  0  0  0  0  0  0  0
  -40.2906   61.0392   65.4556 C   0  0  0  0  0  0  0  0  0  0  0  0
  -40.4354   62.4016   65.8567 O   0  0  0  0  0  0  0  0  0  0  0  0
  -40.2590   62.4792   66.8075 H   0  0  0  0  0  0  0  0  0  0  0  0
  -38.8595   60.6226   65.6938 C   0  0  0  0  0  0  0  0  0  0  0  0
  -38.0851   61.7984   66.0047 O   0  0  0  0  0  0  0  0  0  0  0  0
  -36.5089   61.7805   65.7933 P   0  0  0  0  0  0  0  0  0  0  0  0
  -36.2088   62.7212   64.6950 O   0  0  0  0  0  0  0  0  0  0  0  0
  -35.8974   62.0033   67.1183 O   0  0  0  0  0  0  0  0  0  0  0  0
  -36.1342   62.8875   67.4392 H   0  0  0  0  0  0  0  0  0  0  0  0
  -36.0888   60.3252   65.3215 O   0  0  0  0  0  0  0  0  0  0  0  0
  -35.5501   60.1296   63.9928 C   0  0  0  0  0  0  0  0  0  0  0  0
  -36.5443   59.2509   63.2683 C   0  0  0  0  0  0  0  0  0  0  0  0
  -36.1154   57.8182   63.0207 N   0  0  0  0  0  0  0  0  0  0  0  0
  -37.0553   57.1283   62.0850 C   0  0  0  0  0  0  0  0  0  0  0  0
  -36.0962   57.0710   64.3155 C   0  0  0  0  0  0  0  0  0  0  0  0
  -34.7447   57.8017   62.4205 C   0  0  0  0  0  0  0  0  0  0  0  0
 34 33  1  0  0  0
 34 35  1  0  0  0
 34 36  1  0  0  0
 34 37  1  0  0  0
 22 23  1  0  0  0
 22 25  1  0  0  0
 22 21  1  0  0  0
 23 24  1  0  0  0
 27 26  1  0  0  0
 27 28  2  0  0  0
 27 31  1  0  0  0
 27 29  1  0  0  0
 25 26  1  0  0  0
 32 33  1  0  0  0
 32 31  1  0  0  0
 29 30  1  0  0  0
 20 21  1  0  0  0
 20  2  1  0  0  0
  1  2  2  0  0  0
  2  3  1  0  0  0
  3  4  1  0  0  0
  4  5  1  0  0  0
  5  6  1  0  0  0
  6  7  1  0  0  0
  7  8  1  0  0  0
  8  9  1  0  0  0
  9 10  1  0  0  0
 10 11  2  0  0  0
 11 12  1  0  0  0
 12 13  1  0  0  0
 13 14  1  0  0  0
 14 15  1  0  0  0
 15 16  1  0  0  0
 16 17  1  0  0  0
 17 18  1  0  0  0
 18 19  1  0  0  0
M  CHG 1  28  -1
M  END
> <minimizedAffinity>
-8.24663

> <CNNscore>
0.7359843850

> <CNNaffinity>
6.7109808922

> <CNN_VS>
4.9391770363

> <CNNaffinity_variance>
0.2626466453

$$$$
/media/chris/experiments/cd1a-new-docking/inputs/ligands/4x6c_ligand.pdb


 37 36  0  0  0  0  0  0  0  0999 V2000
  -41.1197   58.4767   65.0818 O   0  0  0  0  0  0  0  0  0  0  0  0
  -41.2560   59.5097   65.6628 C   0  0  0  0  0  0  0  0  0  0  0  0
  -42.5551   60.0124   66.2018 C   0  0  0  0  0  0  0  0  0  0  0  0
  -43.7056   59.8384   65.2283 C   0  0  0  0  0  0  0  0  0  0  0  0
  -44.9125   59.1745   65.8551 C   0  0  0  0  0  0  0  0  0  0  0  0
  -46.2336   59.5618   65.2333 C   0  0  0  0  0  0  0  0  0  0  0  0
  -47.4318   58.9579   65.9202 C   0  0  0  0  0  0  0  0  0  0  0  0
  -48.1825   58.0032   65.0311 C   0  0  0  0  0  0  0  0  0  0  0  0
  -49.6778   58.0992   65.1003 C   0  0  0  0  0  0  0  0  0  0  0  0
  -50.1663   59.4754   65.2691 C   0  0  0  0  0  0  0  0  0  0  0  0
  -50.7876   60.2270   64.3872 C   0  0  0  0  0  0  0  0  0  0  0  0
  -51.1777   59.8736   62.9989 C   0  0  0  0  0  0  0  0  0  0  0  0
  -50.1007   60.0612   61.9500 C   0  0  0  0  0  0  0  0  0  0  0  0
  -49.4907   58.7608   61.5041 C   0  0  0  0  0  0  0  0  0  0  0  0
  -50.4849   57.6659   61.2134 C   0  0  0  0  0  0  0  0  0  0  0  0
  -50.1713   56.9198   59.9353 C   0  0  0  0  0  0  0  0  0  0  0  0
  -49.0245   55.9526   60.0316 C   0  0  0  0  0  0  0  0  0  0  0  0
  -48.2657   55.8232   58.7719 C   0  0  0  0  0  0  0  0  0  0  0  0
  -47.8785   57.1083   58.1932 C   0  0  0  0  0  0  0  0  0  0  0  0
  -40.2602   60.3626   65.9028 O   0  0  0  0  0  0  0  0  0  0  0  0
  -38.9557   60.0310   65.3771 C   0  0  0  0  0  0  0  0  0  0  0  0
  -38.1754   61.3219   65.2803 C   0  0  0  0  0  0  0  0  0  0  0  0
  -38.9693   62.3968   65.7826 O   0  0  0  0  0  0  0  0  0  0  0  0
  -39.1505   62.2522   66.7246 H   0  0  0  0  0  0  0  0  0  0  0  0
  -36.8537   61.3256   66.0092 C   0  0  0  0  0  0  0  0  0  0  0  0
  -36.3722   62.6828   66.0795 O   0  0  0  0  0  0  0  0  0  0  0  0
  -35.3556   63.0981   67.2298 P   0  0  0  0  0  0  0  0  0  0  0  0
  -35.3876   64.5716   67.3245 O   0  0  0  0  0  0  0  0  0  0  0  0
  -35.7024   62.2933   68.4178 O   0  0  0  0  0  0  0  0  0  0  0  0
  -36.5924   62.5316   68.7212 H   0  0  0  0  0  0  0  0  0  0  0  0
  -33.8964   62.6669   66.7808 O   0  0  0  0  0  0  0  0  0  0  0  0
  -33.0307   63.6298   66.1349 C   0  0  0  0  0  0  0  0  0  0  0  0
  -33.1505   63.3644   64.6514 C   0  0  0  0  0  0  0  0  0  0  0  0
  -32.0831   63.9852   63.7720 N   0  0  0  0  0  0  0  0  0  0  0  0
  -31.3566   62.9405   62.9873 C   0  0  0  0  0  0  0  0  0  0  0  0
  -31.0954   64.7154   64.6244 C   0  0  0  0  0  0  0  0  0  0  0  0
  -32.7172   64.9467   62.8167 C   0  0  0  0  0  0  0  0  0  0  0  0
 34 33  1  0  0  0
 34 35  1  0  0  0
 34 36  1  0  0  0
 34 37  1  0  0  0
 22 23  1  0  0  0
 22 25  1  0  0  0
 22 21  1  0  0  0
 23 24  1  0  0  0
 27 26  1  0  0  0
 27 28  2  0  0  0
 27 31  1  0  0  0
 27 29  1  0  0  0
 25 26  1  0  0  0
 32 33  1  0  0  0
 32 31  1  0  0  0
 29 30  1  0  0  0
 20 21  1  0  0  0
 20  2  1  0  0  0
  1  2  2  0  0  0
  2  3  1  0  0  0
  3  4  1  0  0  0
  4  5  1  0  0  0
  5  6  1  0  0  0
  6  7  1  0  0  0
  7  8  1  0  0  0
  8  9  1  0  0  0
  9 10  1  0  0  0
 10 11  2  0  0  0
 11 12  1  0  0  0
 12 13  1  0  0  0
 13 14  1  0  0  0
 14 15  1  0  0  0
 15 16  1  0  0  0
 16 17  1  0  0  0
 17 18  1  0  0  0
 18 19  1  0  0  0
M  CHG 1  28  -1
M  END
> <minimizedAffinity>
-8.31554

> <CNNscore>
0.6953397393

> <CNNaffinity>
6.1311850548

> <CNN_VS>
4.2632565498

> <CNNaffinity_variance>
0.4404470921

$$$$
/media/chris/experiments/cd1a-new-docking/inputs/ligands/4x6c_ligand.pdb


 37 36  0  0  0  0  0  0  0  0999 V2000
  -42.0435   60.3558   66.6013 O   0  0  0  0  0  0  0  0  0  0  0  0
  -42.0273   60.0680   65.4437 C   0  0  0  0  0  0  0  0  0  0  0  0
  -43.2455   59.9084   64.5943 C   0  0  0  0  0  0  0  0  0  0  0  0
  -44.4368   59.3712   65.3648 C   0  0  0  0  0  0  0  0  0  0  0  0
  -45.0040   58.1033   64.7641 C   0  0  0  0  0  0  0  0  0  0  0  0
  -46.3274   57.6704   65.3497 C   0  0  0  0  0  0  0  0  0  0  0  0
  -47.5097   57.9459   64.4561 C   0  0  0  0  0  0  0  0  0  0  0  0
  -48.7944   58.0795   65.2287 C   0  0  0  0  0  0  0  0  0  0  0  0
  -49.3054   59.4804   65.3914 C   0  0  0  0  0  0  0  0  0  0  0  0
  -50.5799   59.7199   64.6992 C   0  0  0  0  0  0  0  0  0  0  0  0
  -50.7645   60.1492   63.4702 C   0  0  0  0  0  0  0  0  0  0  0  0
  -49.7342   60.4818   62.4542 C   0  0  0  0  0  0  0  0  0  0  0  0
  -49.7621   59.6391   61.1955 C   0  0  0  0  0  0  0  0  0  0  0  0
  -49.8002   58.1636   61.4846 C   0  0  0  0  0  0  0  0  0  0  0  0
  -50.5201   57.3377   60.4495 C   0  0  0  0  0  0  0  0  0  0  0  0
  -49.6365   56.9770   59.2757 C   0  0  0  0  0  0  0  0  0  0  0  0
  -48.5820   55.9469   59.5698 C   0  0  0  0  0  0  0  0  0  0  0  0
  -47.2884   56.2374   58.9206 C   0  0  0  0  0  0  0  0  0  0  0  0
  -47.3990   57.1638   57.7954 C   0  0  0  0  0  0  0  0  0  0  0  0
  -40.9111   59.8411   64.7514 O   0  0  0  0  0  0  0  0  0  0  0  0
  -39.6517   60.0905   65.4146 C   0  0  0  0  0  0  0  0  0  0  0  0
  -39.2000   61.4730   65.0030 C   0  0  0  0  0  0  0  0  0  0  0  0
  -39.6845   62.4317   65.9434 O   0  0  0  0  0  0  0  0  0  0  0  0
  -39.2912   62.2588   66.8131 H   0  0  0  0  0  0  0  0  0  0  0  0
  -37.7058   61.6451   64.8752 C   0  0  0  0  0  0  0  0  0  0  0  0
  -37.1126   61.4877   66.1798 O   0  0  0  0  0  0  0  0  0  0  0  0
  -35.7324   62.2065   66.5079 P   0  0  0  0  0  0  0  0  0  0  0  0
  -35.6733   63.4285   65.6807 O   0  0  0  0  0  0  0  0  0  0  0  0
  -35.6524   62.3279   67.9770 O   0  0  0  0  0  0  0  0  0  0  0  0
  -36.3614   62.9097   68.2925 H   0  0  0  0  0  0  0  0  0  0  0  0
  -34.5536   61.2476   66.0516 O   0  0  0  0  0  0  0  0  0  0  0  0
  -34.1555   61.2122   64.6609 C   0  0  0  0  0  0  0  0  0  0  0  0
  -34.3287   59.7775   64.2171 C   0  0  0  0  0  0  0  0  0  0  0  0
  -33.1088   59.1122   63.6114 N   0  0  0  0  0  0  0  0  0  0  0  0
  -32.4100   58.2520   64.6147 C   0  0  0  0  0  0  0  0  0  0  0  0
  -32.1546   60.1588   63.1323 C   0  0  0  0  0  0  0  0  0  0  0  0
  -33.5255   58.2577   62.4558 C   0  0  0  0  0  0  0  0  0  0  0  0
 34 33  1  0  0  0
 34 35  1  0  0  0
 34 36  1  0  0  0
 34 37  1  0  0  0
 22 23  1  0  0  0
 22 25  1  0  0  0
 22 21  1  0  0  0
 23 24  1  0  0  0
 27 26  1  0  0  0
 27 28  2  0  0  0
 27 31  1  0  0  0
 27 29  1  0  0  0
 25 26  1  0  0  0
 32 33  1  0  0  0
 32 31  1  0  0  0
 29 30  1  0  0  0
 20 21  1  0  0  0
 20  2  1  0  0  0
  1  2  2  0  0  0
  2  3  1  0  0  0
  3  4  1  0  0  0
  4  5  1  0  0  0
  5  6  1  0  0  0
  6  7  1  0  0  0
  7  8  1  0  0  0
  8  9  1  0  0  0
  9 10  1  0  0  0
 10 11  2  0  0  0
 11 12  1  0  0  0
 12 13  1  0  0  0
 13 14  1  0  0  0
 14 15  1  0  0  0
 15 16  1  0  0  0
 16 17  1  0  0  0
 17 18  1  0  0  0
 18 19  1  0  0  0
M  CHG 1  28  -1
M  END
> <minimizedAffinity>
-8.22300

> <CNNscore>
0.6468406320

> <CNNaffinity>
6.2730131149

> <CNN_VS>
4.0576395988

> <CNNaffinity_variance>
0.2677836120

$$$$
/media/chris/experiments/cd1a-new-docking/inputs/ligands/4x6c_ligand.pdb


 37 36  0  0  0  0  0  0  0  0999 V2000
  -42.1570   57.7543   66.0694 O   0  0  0  0  0  0  0  0  0  0  0  0
  -42.4524   58.7539   65.4893 C   0  0  0  0  0  0  0  0  0  0  0  0
  -43.8107   59.3750   65.5111 C   0  0  0  0  0  0  0  0  0  0  0  0
  -44.8726   58.4956   64.8784 C   0  0  0  0  0  0  0  0  0  0  0  0
  -46.1985   58.5571   65.6056 C   0  0  0  0  0  0  0  0  0  0  0  0
  -47.4091   58.5475   64.7022 C   0  0  0  0  0  0  0  0  0  0  0  0
  -48.4145   57.4765   65.0403 C   0  0  0  0  0  0  0  0  0  0  0  0
  -49.8153   58.0170   65.1460 C   0  0  0  0  0  0  0  0  0  0  0  0
  -49.9204   59.5025   65.3260 C   0  0  0  0  0  0  0  0  0  0  0  0
  -50.9156   60.1275   64.4429 C   0  0  0  0  0  0  0  0  0  0  0  0
  -50.7757   60.4695   63.1810 C   0  0  0  0  0  0  0  0  0  0  0  0
  -49.5840   60.2926   62.3133 C   0  0  0  0  0  0  0  0  0  0  0  0
  -49.7684   59.3617   61.1323 C   0  0  0  0  0  0  0  0  0  0  0  0
  -50.0117   57.9368   61.5476 C   0  0  0  0  0  0  0  0  0  0  0  0
  -50.3888   57.0085   60.4217 C   0  0  0  0  0  0  0  0  0  0  0  0
  -49.9582   57.5304   59.0686 C   0  0  0  0  0  0  0  0  0  0  0  0
  -49.0457   56.6170   58.2986 C   0  0  0  0  0  0  0  0  0  0  0  0
  -47.9581   56.0526   59.1220 C   0  0  0  0  0  0  0  0  0  0  0  0
  -46.6236   56.4015   58.6387 C   0  0  0  0  0  0  0  0  0  0  0  0
  -41.6046   59.4503   64.7323 O   0  0  0  0  0  0  0  0  0  0  0  0
  -41.7971   60.8804   64.6567 C   0  0  0  0  0  0  0  0  0  0  0  0
  -40.4505   61.5225   64.9000 C   0  0  0  0  0  0  0  0  0  0  0  0
  -40.5642   62.4836   65.9494 O   0  0  0  0  0  0  0  0  0  0  0  0
  -40.8105   62.0349   66.7735 H   0  0  0  0  0  0  0  0  0  0  0  0
  -39.3396   60.5630   65.2518 C   0  0  0  0  0  0  0  0  0  0  0  0
  -38.3500   61.2707   66.0255 O   0  0  0  0  0  0  0  0  0  0  0  0
  -37.0065   61.7576   65.3275 P   0  0  0  0  0  0  0  0  0  0  0  0
  -36.0716   60.6145   65.3435 O   0  0  0  0  0  0  0  0  0  0  0  0
  -37.3896   62.3554   64.0333 O   0  0  0  0  0  0  0  0  0  0  0  0
  -37.7780   61.6728   63.4641 H   0  0  0  0  0  0  0  0  0  0  0  0
  -36.3803   62.9161   66.2123 O   0  0  0  0  0  0  0  0  0  0  0  0
  -34.9530   63.1520   66.1792 C   0  0  0  0  0  0  0  0  0  0  0  0
  -34.7551   64.3712   65.3074 C   0  0  0  0  0  0  0  0  0  0  0  0
  -33.9011   64.1777   64.0700 N   0  0  0  0  0  0  0  0  0  0  0  0
  -32.6945   65.0595   64.1046 C   0  0  0  0  0  0  0  0  0  0  0  0
  -34.7021   64.5115   62.8525 C   0  0  0  0  0  0  0  0  0  0  0  0
  -33.4506   62.7529   63.9895 C   0  0  0  0  0  0  0  0  0  0  0  0
 34 33  1  0  0  0
 34 35  1  0  0  0
 34 36  1  0  0  0
 34 37  1  0  0  0
 22 23  1  0  0  0
 22 25  1  0  0  0
 22 21  1  0  0  0
 23 24  1  0  0  0
 27 26  1  0  0  0
 27 28  2  0  0  0
 27 31  1  0  0  0
 27 29  1  0  0  0
 25 26  1  0  0  0
 32 33  1  0  0  0
 32 31  1  0  0  0
 29 30  1  0  0  0
 20 21  1  0  0  0
 20  2  1  0  0  0
  1  2  2  0  0  0
  2  3  1  0  0  0
  3  4  1  0  0  0
  4  5  1  0  0  0
  5  6  1  0  0  0
  6  7  1  0  0  0
  7  8  1  0  0  0
  8  9  1  0  0  0
  9 10  1  0  0  0
 10 11  2  0  0  0
 11 12  1  0  0  0
 12 13  1  0  0  0
 13 14  1  0  0  0
 14 15  1  0  0  0
 15 16  1  0  0  0
 16 17  1  0  0  0
 17 18  1  0  0  0
 18 19  1  0  0  0
M  CHG 1  28  -1
M  END
> <minimizedAffinity>
-8.12697

> <CNNscore>
0.6444451213

> <CNNaffinity>
6.2941312790

> <CNN_VS>
4.0562219620

> <CNNaffinity_variance>
0.2909476161

$$$$
/media/chris/experiments/cd1a-new-docking/inputs/ligands/4x6c_ligand.pdb


 37 36  0  0  0  0  0  0  0  0999 V2000
  -40.8572   61.4855   65.8853 O   0  0  0  0  0  0  0  0  0  0  0  0
  -41.0497   61.1489   64.7571 C   0  0  0  0  0  0  0  0  0  0  0  0
  -42.1829   60.2823   64.3143 C   0  0  0  0  0  0  0  0  0  0  0  0
  -43.2789   60.1646   65.3566 C   0  0  0  0  0  0  0  0  0  0  0  0
  -44.4000   59.2413   64.9310 C   0  0  0  0  0  0  0  0  0  0  0  0
  -45.3012   58.7905   66.0564 C   0  0  0  0  0  0  0  0  0  0  0  0
  -46.3199   57.7579   65.6462 C   0  0  0  0  0  0  0  0  0  0  0  0
  -47.2132   58.2423   64.5359 C   0  0  0  0  0  0  0  0  0  0  0  0
  -48.6791   57.9928   64.7334 C   0  0  0  0  0  0  0  0  0  0  0  0
  -49.3717   59.0969   65.4132 C   0  0  0  0  0  0  0  0  0  0  0  0
  -50.3467   59.8475   64.9497 C   0  0  0  0  0  0  0  0  0  0  0  0
  -51.0173   59.7605   63.6280 C   0  0  0  0  0  0  0  0  0  0  0  0
  -50.2039   60.2548   62.4492 C   0  0  0  0  0  0  0  0  0  0  0  0
  -49.8589   59.1577   61.4800 C   0  0  0  0  0  0  0  0  0  0  0  0
  -50.6513   57.8880   61.6583 C   0  0  0  0  0  0  0  0  0  0  0  0
  -50.5358   56.9587   60.4702 C   0  0  0  0  0  0  0  0  0  0  0  0
  -50.0991   57.6169   59.1913 C   0  0  0  0  0  0  0  0  0  0  0  0
  -48.9088   56.9846   58.5889 C   0  0  0  0  0  0  0  0  0  0  0  0
  -48.3212   55.9396   59.4250 C   0  0  0  0  0  0  0  0  0  0  0  0
  -40.2682   61.4979   63.7353 O   0  0  0  0  0  0  0  0  0  0  0  0
  -40.2232   60.6106   62.5957 C   0  0  0  0  0  0  0  0  0  0  0  0
  -38.7866   60.1692   62.4340 C   0  0  0  0  0  0  0  0  0  0  0  0
  -38.1201   61.0425   61.5223 O   0  0  0  0  0  0  0  0  0  0  0  0
  -38.0949   61.9386   61.8929 H   0  0  0  0  0  0  0  0  0  0  0  0
  -37.9868   60.1162   63.7130 C   0  0  0  0  0  0  0  0  0  0  0  0
  -36.9512   61.1173   63.6483 O   0  0  0  0  0  0  0  0  0  0  0  0
  -36.6497   62.0204   64.9222 P   0  0  0  0  0  0  0  0  0  0  0  0
  -35.7679   63.1178   64.4758 O   0  0  0  0  0  0  0  0  0  0  0  0
  -37.9535   62.3481   65.5320 O   0  0  0  0  0  0  0  0  0  0  0  0
  -38.4730   62.8865   64.9147 H   0  0  0  0  0  0  0  0  0  0  0  0
  -35.8476   61.1430   65.9729 O   0  0  0  0  0  0  0  0  0  0  0  0
  -34.4417   60.8757   65.7595 C   0  0  0  0  0  0  0  0  0  0  0  0
  -34.3635   59.4560   65.2460 C   0  0  0  0  0  0  0  0  0  0  0  0
  -33.4349   59.2191   64.0715 N   0  0  0  0  0  0  0  0  0  0  0  0
  -32.2771   58.3590   64.4647 C   0  0  0  0  0  0  0  0  0  0  0  0
  -32.9107   60.5288   63.5764 C   0  0  0  0  0  0  0  0  0  0  0  0
  -34.1841   58.5385   62.9693 C   0  0  0  0  0  0  0  0  0  0  0  0
 34 33  1  0  0  0
 34 35  1  0  0  0
 34 36  1  0  0  0
 34 37  1  0  0  0
 22 23  1  0  0  0
 22 25  1  0  0  0
 22 21  1  0  0  0
 23 24  1  0  0  0
 27 26  1  0  0  0
 27 28  2  0  0  0
 27 31  1  0  0  0
 27 29  1  0  0  0
 25 26  1  0  0  0
 32 33  1  0  0  0
 32 31  1  0  0  0
 29 30  1  0  0  0
 20 21  1  0  0  0
 20  2  1  0  0  0
  1  2  2  0  0  0
  2  3  1  0  0  0
  3  4  1  0  0  0
  4  5  1  0  0  0
  5  6  1  0  0  0
  6  7  1  0  0  0
  7  8  1  0  0  0
  8  9  1  0  0  0
  9 10  1  0  0  0
 10 11  2  0  0  0
 11 12  1  0  0  0
 12 13  1  0  0  0
 13 14  1  0  0  0
 14 15  1  0  0  0
 15 16  1  0  0  0
 16 17  1  0  0  0
 17 18  1  0  0  0
 18 19  1  0  0  0
M  CHG 1  28  -1
M  END
> <minimizedAffinity>
-7.87017

> <CNNscore>
0.6340346932

> <CNNaffinity>
6.4458374977

> <CNN_VS>
4.0868844986

> <CNNaffinity_variance>
0.3975000381

$$$$
