/media/chris/experiments/cd1a-new-docking/inputs/ligands/4x6c_ligand.pdb


 37 36  0  0  0  0  0  0  0  0999 V2000
  -42.1621   58.0701   66.1932 O   0  0  0  0  0  0  0  0  0  0  0  0
  -42.8999   58.8009   65.6062 C   0  0  0  0  0  0  0  0  0  0  0  0
  -44.1084   58.3549   64.8501 C   0  0  0  0  0  0  0  0  0  0  0  0
  -44.6746   57.0437   65.3614 C   0  0  0  0  0  0  0  0  0  0  0  0
  -46.1359   57.1417   65.7426 C   0  0  0  0  0  0  0  0  0  0  0  0
  -46.5660   58.5056   66.2291 C   0  0  0  0  0  0  0  0  0  0  0  0
  -47.6813   59.1181   65.4210 C   0  0  0  0  0  0  0  0  0  0  0  0
  -48.5578   58.0799   64.7733 C   0  0  0  0  0  0  0  0  0  0  0  0
  -50.0117   58.1471   65.1365 C   0  0  0  0  0  0  0  0  0  0  0  0
  -50.5396   59.5186   65.1768 C   0  0  0  0  0  0  0  0  0  0  0  0
  -51.0122   60.2329   64.1794 C   0  0  0  0  0  0  0  0  0  0  0  0
  -51.1568   59.8326   62.7570 C   0  0  0  0  0  0  0  0  0  0  0  0
  -49.9990   60.2037   61.8531 C   0  0  0  0  0  0  0  0  0  0  0  0
  -49.8260   59.2453   60.7069 C   0  0  0  0  0  0  0  0  0  0  0  0
  -49.8801   57.7887   61.0907 C   0  0  0  0  0  0  0  0  0  0  0  0
  -48.8558   56.9545   60.3532 C   0  0  0  0  0  0  0  0  0  0  0  0
  -48.7695   57.2180   58.8758 C   0  0  0  0  0  0  0  0  0  0  0  0
  -47.7168   56.4298   58.2052 C   0  0  0  0  0  0  0  0  0  0  0  0
  -46.9348   57.2051   57.2441 C   0  0  0  0  0  0  0  0  0  0  0  0
  -42.7376   60.1224   65.5400 O   0  0  0  0  0  0  0  0  0  0  0  0
  -41.7837   60.7239   66.4435 C   0  0  0  0  0  0  0  0  0  0  0  0
  -40.6754   61.3049   65.5958 C   0  0  0  0  0  0  0  0  0  0  0  0
  -40.4263   62.6523   65.9963 O   0  0  0  0  0  0  0  0  0  0  0  0
  -40.1093   62.6639   66.9130 H   0  0  0  0  0  0  0  0  0  0  0  0
  -39.3713   60.5461   65.6418 C   0  0  0  0  0  0  0  0  0  0  0  0
  -38.4109   61.2337   64.8150 O   0  0  0  0  0  0  0  0  0  0  0  0
  -36.9378   61.4814   65.3607 P   0  0  0  0  0  0  0  0  0  0  0  0
  -36.5557   62.8530   64.9682 O   0  0  0  0  0  0  0  0  0  0  0  0
  -36.9454   61.1184   66.7915 O   0  0  0  0  0  0  0  0  0  0  0  0
  -37.5352   61.7184   67.2743 H   0  0  0  0  0  0  0  0  0  0  0  0
  -35.9607   60.4705   64.6256 O   0  0  0  0  0  0  0  0  0  0  0  0
  -36.2276   59.0493   64.6773 C   0  0  0  0  0  0  0  0  0  0  0  0
  -36.0412   58.5414   63.2655 C   0  0  0  0  0  0  0  0  0  0  0  0
  -37.3034   58.1510   62.5227 N   0  0  0  0  0  0  0  0  0  0  0  0
  -38.3723   57.7107   63.4705 C   0  0  0  0  0  0  0  0  0  0  0  0
  -37.0040   57.0262   61.5843 C   0  0  0  0  0  0  0  0  0  0  0  0
  -37.8089   59.3237   61.7425 C   0  0  0  0  0  0  0  0  0  0  0  0
 34 33  1  0  0  0
 34 35  1  0  0  0
 34 36  1  0  0  0
 34 37  1  0  0  0
 22 23  1  0  0  0
 22 25  1  0  0  0
 22 21  1  0  0  0
 23 24  1  0  0  0
 27 26  1  0  0  0
 27 28  2  0  0  0
 27 31  1  0  0  0
 27 29  1  0  0  0
 25 26  1  0  0  0
 32 33  1  0  0  0
 32 31  1  0  0  0
 29 30  1  0  0  0
 20 21  1  0  0  0
 20  2  1  0  0  0
  1  2  2  0  0  0
  2  3  1  0  0  0
  3  4  1  0  0  0
  4  5  1  0  0  0
  5  6  1  0  0  0
  6  7  1  0  0  0
  7  8  1  0  0  0
  8  9  1  0  0  0
  9 10  1  0  0  0
 10 11  2  0  0  0
 11 12  1  0  0  0
 12 13  1  0  0  0
 13 14  1  0  0  0
 14 15  1  0  0  0
 15 16  1  0  0  0
 16 17  1  0  0  0
 17 18  1  0  0  0
 18 19  1  0  0  0
M  CHG 1  28  -1
M  END
> <minimizedAffinity>
-8.32660

> <CNNscore>
0.9167383909

> <CNNaffinity>
7.2283887863

> <CNN_VS>
6.6265416145

> <CNNaffinity_variance>
0.3958184123

$$$$
/media/chris/experiments/cd1a-new-docking/inputs/ligands/4x6c_ligand.pdb


 37 36  0  0  0  0  0  0  0  0999 V2000
  -40.7467   61.6930   66.2956 O   0  0  0  0  0  0  0  0  0  0  0  0
  -41.0272   60.5925   65.9307 C   0  0  0  0  0  0  0  0  0  0  0  0
  -42.1832   59.7992   66.4457 C   0  0  0  0  0  0  0  0  0  0  0  0
  -43.1199   59.3374   65.3453 C   0  0  0  0  0  0  0  0  0  0  0  0
  -43.6171   57.9227   65.5500 C   0  0  0  0  0  0  0  0  0  0  0  0
  -44.7356   57.5117   64.6216 C   0  0  0  0  0  0  0  0  0  0  0  0
  -45.9442   58.4102   64.6869 C   0  0  0  0  0  0  0  0  0  0  0  0
  -46.9468   57.9499   65.7108 C   0  0  0  0  0  0  0  0  0  0  0  0
  -48.2357   58.7168   65.7401 C   0  0  0  0  0  0  0  0  0  0  0  0
  -49.3373   58.0319   65.0482 C   0  0  0  0  0  0  0  0  0  0  0  0
  -49.8266   58.2882   63.8552 C   0  0  0  0  0  0  0  0  0  0  0  0
  -49.3794   59.3211   62.8869 C   0  0  0  0  0  0  0  0  0  0  0  0
  -49.7701   59.0763   61.4437 C   0  0  0  0  0  0  0  0  0  0  0  0
  -50.7278   57.9270   61.2878 C   0  0  0  0  0  0  0  0  0  0  0  0
  -50.2909   56.8728   60.3031 C   0  0  0  0  0  0  0  0  0  0  0  0
  -48.8107   56.5726   60.3909 C   0  0  0  0  0  0  0  0  0  0  0  0
  -48.2106   55.9764   59.1483 C   0  0  0  0  0  0  0  0  0  0  0  0
  -48.2447   56.8906   57.9898 C   0  0  0  0  0  0  0  0  0  0  0  0
  -46.9253   57.1524   57.4182 C   0  0  0  0  0  0  0  0  0  0  0  0
  -40.3355   59.9163   65.0134 O   0  0  0  0  0  0  0  0  0  0  0  0
  -38.9308   60.2253   64.8746 C   0  0  0  0  0  0  0  0  0  0  0  0
  -38.8191   61.3318   63.8511 C   0  0  0  0  0  0  0  0  0  0  0  0
  -37.7549   62.2111   64.2150 O   0  0  0  0  0  0  0  0  0  0  0  0
  -36.9143   61.7276   64.1935 H   0  0  0  0  0  0  0  0  0  0  0  0
  -38.5900   60.8691   62.4327 C   0  0  0  0  0  0  0  0  0  0  0  0
  -37.4248   60.0204   62.4094 O   0  0  0  0  0  0  0  0  0  0  0  0
  -37.4294   58.7023   61.5194 P   0  0  0  0  0  0  0  0  0  0  0  0
  -38.1010   57.6497   62.3082 O   0  0  0  0  0  0  0  0  0  0  0  0
  -37.9817   59.0775   60.2029 O   0  0  0  0  0  0  0  0  0  0  0  0
  -38.9048   59.3569   60.3071 H   0  0  0  0  0  0  0  0  0  0  0  0
  -35.9247   58.2563   61.2869 O   0  0  0  0  0  0  0  0  0  0  0  0
  -35.2391   57.4881   62.3036 C   0  0  0  0  0  0  0  0  0  0  0  0
  -34.1124   58.3671   62.7973 C   0  0  0  0  0  0  0  0  0  0  0  0
  -34.2081   58.8322   64.2367 N   0  0  0  0  0  0  0  0  0  0  0  0
  -35.4636   58.3384   64.8805 C   0  0  0  0  0  0  0  0  0  0  0  0
  -34.2044   60.3267   64.2808 C   0  0  0  0  0  0  0  0  0  0  0  0
  -33.0372   58.3125   65.0103 C   0  0  0  0  0  0  0  0  0  0  0  0
 34 33  1  0  0  0
 34 35  1  0  0  0
 34 36  1  0  0  0
 34 37  1  0  0  0
 22 23  1  0  0  0
 22 25  1  0  0  0
 22 21  1  0  0  0
 23 24  1  0  0  0
 27 26  1  0  0  0
 27 28  2  0  0  0
 27 31  1  0  0  0
 27 29  1  0  0  0
 25 26  1  0  0  0
 32 33  1  0  0  0
 32 31  1  0  0  0
 29 30  1  0  0  0
 20 21  1  0  0  0
 20  2  1  0  0  0
  1  2  2  0  0  0
  2  3  1  0  0  0
  3  4  1  0  0  0
  4  5  1  0  0  0
  5  6  1  0  0  0
  6  7  1  0  0  0
  7  8  1  0  0  0
  8  9  1  0  0  0
  9 10  1  0  0  0
 10 11  2  0  0  0
 11 12  1  0  0  0
 12 13  1  0  0  0
 13 14  1  0  0  0
 14 15  1  0  0  0
 15 16  1  0  0  0
 16 17  1  0  0  0
 17 18  1  0  0  0
 18 19  1  0  0  0
M  CHG 1  28  -1
M  END
> <minimizedAffinity>
-7.74536

> <CNNscore>
0.8090635538

> <CNNaffinity>
6.8725852966

> <CNN_VS>
5.5603580475

> <CNNaffinity_variance>
0.7883127928

$$$$
/media/chris/experiments/cd1a-new-docking/inputs/ligands/4x6c_ligand.pdb


 37 36  0  0  0  0  0  0  0  0999 V2000
  -42.1763   57.8119   65.9418 O   0  0  0  0  0  0  0  0  0  0  0  0
  -42.6663   58.7908   65.4679 C   0  0  0  0  0  0  0  0  0  0  0  0
  -44.0220   58.8407   64.8427 C   0  0  0  0  0  0  0  0  0  0  0  0
  -44.7057   57.4870   64.8057 C   0  0  0  0  0  0  0  0  0  0  0  0
  -45.7223   57.3099   65.9128 C   0  0  0  0  0  0  0  0  0  0  0  0
  -46.3150   58.5992   66.4307 C   0  0  0  0  0  0  0  0  0  0  0  0
  -47.7201   58.8608   65.9517 C   0  0  0  0  0  0  0  0  0  0  0  0
  -48.2995   57.6891   65.2055 C   0  0  0  0  0  0  0  0  0  0  0  0
  -49.6821   57.8926   64.6605 C   0  0  0  0  0  0  0  0  0  0  0  0
  -50.2815   59.1754   65.0559 C   0  0  0  0  0  0  0  0  0  0  0  0
  -50.8770   60.0608   64.2877 C   0  0  0  0  0  0  0  0  0  0  0  0
  -51.1194   59.9851   62.8248 C   0  0  0  0  0  0  0  0  0  0  0  0
  -50.0371   60.5863   61.9516 C   0  0  0  0  0  0  0  0  0  0  0  0
  -49.6232   59.6751   60.8288 C   0  0  0  0  0  0  0  0  0  0  0  0
  -49.9291   58.2168   61.0563 C   0  0  0  0  0  0  0  0  0  0  0  0
  -50.3438   57.5048   59.7875 C   0  0  0  0  0  0  0  0  0  0  0  0
  -49.2086   57.0944   58.8916 C   0  0  0  0  0  0  0  0  0  0  0  0
  -48.2168   56.2343   59.5667 C   0  0  0  0  0  0  0  0  0  0  0  0
  -47.3655   55.4920   58.6391 C   0  0  0  0  0  0  0  0  0  0  0  0
  -42.0607   59.9775   65.4259 O   0  0  0  0  0  0  0  0  0  0  0  0
  -40.8531   60.1387   66.2029 C   0  0  0  0  0  0  0  0  0  0  0  0
  -39.9668   61.1041   65.4500 C   0  0  0  0  0  0  0  0  0  0  0  0
  -40.2172   62.4339   65.9050 O   0  0  0  0  0  0  0  0  0  0  0  0
  -39.9739   62.5066   66.8411 H   0  0  0  0  0  0  0  0  0  0  0  0
  -38.4861   60.8333   65.5634 C   0  0  0  0  0  0  0  0  0  0  0  0
  -37.7833   62.0904   65.4962 O   0  0  0  0  0  0  0  0  0  0  0  0
  -36.2255   62.1384   65.8131 P   0  0  0  0  0  0  0  0  0  0  0  0
  -36.0804   62.0779   67.2815 O   0  0  0  0  0  0  0  0  0  0  0  0
  -35.5884   61.0967   64.9837 O   0  0  0  0  0  0  0  0  0  0  0  0
  -35.9103   60.2236   65.2574 H   0  0  0  0  0  0  0  0  0  0  0  0
  -35.6631   63.5382   65.3218 O   0  0  0  0  0  0  0  0  0  0  0  0
  -35.4243   63.7603   63.9120 C   0  0  0  0  0  0  0  0  0  0  0  0
  -34.7351   65.1025   63.8153 C   0  0  0  0  0  0  0  0  0  0  0  0
  -33.2206   65.0746   63.7594 N   0  0  0  0  0  0  0  0  0  0  0  0
  -32.7227   63.7434   63.2961 C   0  0  0  0  0  0  0  0  0  0  0  0
  -32.6647   65.3451   65.1208 C   0  0  0  0  0  0  0  0  0  0  0  0
  -32.7346   66.1243   62.8100 C   0  0  0  0  0  0  0  0  0  0  0  0
 34 33  1  0  0  0
 34 35  1  0  0  0
 34 36  1  0  0  0
 34 37  1  0  0  0
 22 23  1  0  0  0
 22 25  1  0  0  0
 22 21  1  0  0  0
 23 24  1  0  0  0
 27 26  1  0  0  0
 27 28  2  0  0  0
 27 31  1  0  0  0
 27 29  1  0  0  0
 25 26  1  0  0  0
 32 33  1  0  0  0
 32 31  1  0  0  0
 29 30  1  0  0  0
 20 21  1  0  0  0
 20  2  1  0  0  0
  1  2  2  0  0  0
  2  3  1  0  0  0
  3  4  1  0  0  0
  4  5  1  0  0  0
  5  6  1  0  0  0
  6  7  1  0  0  0
  7  8  1  0  0  0
  8  9  1  0  0  0
  9 10  1  0  0  0
 10 11  2  0  0  0
 11 12  1  0  0  0
 12 13  1  0  0  0
 13 14  1  0  0  0
 14 15  1  0  0  0
 15 16  1  0  0  0
 16 17  1  0  0  0
 17 18  1  0  0  0
 18 19  1  0  0  0
M  CHG 1  28  -1
M  END
> <minimizedAffinity>
-8.27540

> <CNNscore>
0.8059535027

> <CNNaffinity>
6.3918380737

> <CNN_VS>
5.1515240669

> <CNNaffinity_variance>
0.1976118684

$$$$
/media/chris/experiments/cd1a-new-docking/inputs/ligands/4x6c_ligand.pdb


 37 36  0  0  0  0  0  0  0  0999 V2000
  -42.5583   57.1445   66.2468 O   0  0  0  0  0  0  0  0  0  0  0  0
  -42.5276   58.1745   65.6459 C   0  0  0  0  0  0  0  0  0  0  0  0
  -43.7346   58.9001   65.1480 C   0  0  0  0  0  0  0  0  0  0  0  0
  -44.9525   58.0043   65.0226 C   0  0  0  0  0  0  0  0  0  0  0  0
  -46.1845   58.5897   65.6782 C   0  0  0  0  0  0  0  0  0  0  0  0
  -47.3229   58.8771   64.7277 C   0  0  0  0  0  0  0  0  0  0  0  0
  -48.3163   57.7498   64.6066 C   0  0  0  0  0  0  0  0  0  0  0  0
  -49.6731   58.1206   65.1423 C   0  0  0  0  0  0  0  0  0  0  0  0
  -49.9684   59.5907   65.1864 C   0  0  0  0  0  0  0  0  0  0  0  0
  -51.0236   60.0015   64.2489 C   0  0  0  0  0  0  0  0  0  0  0  0
  -50.9061   60.2745   62.9682 C   0  0  0  0  0  0  0  0  0  0  0  0
  -49.6817   60.2170   62.1304 C   0  0  0  0  0  0  0  0  0  0  0  0
  -49.7335   59.2522   60.9634 C   0  0  0  0  0  0  0  0  0  0  0  0
  -50.0944   57.8533   61.3814 C   0  0  0  0  0  0  0  0  0  0  0  0
  -50.3469   56.9008   60.2408 C   0  0  0  0  0  0  0  0  0  0  0  0
  -49.5834   57.2761   58.9898 C   0  0  0  0  0  0  0  0  0  0  0  0
  -48.2608   56.5816   58.8228 C   0  0  0  0  0  0  0  0  0  0  0  0
  -47.6242   56.8492   57.5181 C   0  0  0  0  0  0  0  0  0  0  0  0
  -47.4957   55.6588   56.6800 C   0  0  0  0  0  0  0  0  0  0  0  0
  -41.4024   58.8153   65.3293 O   0  0  0  0  0  0  0  0  0  0  0  0
  -41.5137   59.9818   64.4837 C   0  0  0  0  0  0  0  0  0  0  0  0
  -40.4710   60.9704   64.9523 C   0  0  0  0  0  0  0  0  0  0  0  0
  -41.0322   61.8128   65.9591 O   0  0  0  0  0  0  0  0  0  0  0  0
  -41.2734   61.2774   66.7311 H   0  0  0  0  0  0  0  0  0  0  0  0
  -39.2061   60.3538   65.4987 C   0  0  0  0  0  0  0  0  0  0  0  0
  -38.1623   60.5000   64.5149 O   0  0  0  0  0  0  0  0  0  0  0  0
  -37.0447   61.6140   64.7136 P   0  0  0  0  0  0  0  0  0  0  0  0
  -36.7873   62.2104   63.3873 O   0  0  0  0  0  0  0  0  0  0  0  0
  -37.4988   62.4829   65.8172 O   0  0  0  0  0  0  0  0  0  0  0  0
  -38.3146   62.9380   65.5557 H   0  0  0  0  0  0  0  0  0  0  0  0
  -35.7133   60.8992   65.1969 O   0  0  0  0  0  0  0  0  0  0  0  0
  -34.8780   61.5361   66.1921 C   0  0  0  0  0  0  0  0  0  0  0  0
  -34.0214   62.5290   65.4396 C   0  0  0  0  0  0  0  0  0  0  0  0
  -34.0059   63.9447   65.9808 N   0  0  0  0  0  0  0  0  0  0  0  0
  -34.7032   64.8849   65.0511 C   0  0  0  0  0  0  0  0  0  0  0  0
  -32.5918   64.4004   66.1492 C   0  0  0  0  0  0  0  0  0  0  0  0
  -34.6979   63.9820   67.3071 C   0  0  0  0  0  0  0  0  0  0  0  0
 34 33  1  0  0  0
 34 35  1  0  0  0
 34 36  1  0  0  0
 34 37  1  0  0  0
 22 23  1  0  0  0
 22 25  1  0  0  0
 22 21  1  0  0  0
 23 24  1  0  0  0
 27 26  1  0  0  0
 27 28  2  0  0  0
 27 31  1  0  0  0
 27 29  1  0  0  0
 25 26  1  0  0  0
 32 33  1  0  0  0
 32 31  1  0  0  0
 29 30  1  0  0  0
 20 21  1  0  0  0
 20  2  1  0  0  0
  1  2  2  0  0  0
  2  3  1  0  0  0
  3  4  1  0  0  0
  4  5  1  0  0  0
  5  6  1  0  0  0
  6  7  1  0  0  0
  7  8  1  0  0  0
  8  9  1  0  0  0
  9 10  1  0  0  0
 10 11  2  0  0  0
 11 12  1  0  0  0
 12 13  1  0  0  0
 13 14  1  0  0  0
 14 15  1  0  0  0
 15 16  1  0  0  0
 16 17  1  0  0  0
 17 18  1  0  0  0
 18 19  1  0  0  0
M  CHG 1  28  -1
M  END
> <minimizedAffinity>
-8.12156

> <CNNscore>
0.8053969145

> <CNNaffinity>
6.4815101624

> <CNN_VS>
5.2201881409

> <CNNaffinity_variance>
0.2886846662

$$$$
/media/chris/experiments/cd1a-new-docking/inputs/ligands/4x6c_ligand.pdb


 37 36  0  0  0  0  0  0  0  0999 V2000
  -42.4998   57.3547   66.1133 O   0  0  0  0  0  0  0  0  0  0  0  0
  -42.6039   58.3853   65.5217 C   0  0  0  0  0  0  0  0  0  0  0  0
  -43.8898   58.9315   64.9932 C   0  0  0  0  0  0  0  0  0  0  0  0
  -44.8084   57.8552   64.4462 C   0  0  0  0  0  0  0  0  0  0  0  0
  -46.0012   57.5890   65.3388 C   0  0  0  0  0  0  0  0  0  0  0  0
  -47.2625   58.3134   64.9309 C   0  0  0  0  0  0  0  0  0  0  0  0
  -47.6670   59.4147   65.8774 C   0  0  0  0  0  0  0  0  0  0  0  0
  -47.9007   60.7224   65.1698 C   0  0  0  0  0  0  0  0  0  0  0  0
  -48.6584   60.6296   63.8785 C   0  0  0  0  0  0  0  0  0  0  0  0
  -50.1118   60.5076   64.0631 C   0  0  0  0  0  0  0  0  0  0  0  0
  -50.9918   59.9913   63.2339 C   0  0  0  0  0  0  0  0  0  0  0  0
  -50.7441   59.3766   61.9052 C   0  0  0  0  0  0  0  0  0  0  0  0
  -50.4816   57.8845   61.9147 C   0  0  0  0  0  0  0  0  0  0  0  0
  -50.9663   57.2011   60.6656 C   0  0  0  0  0  0  0  0  0  0  0  0
  -49.9371   57.0873   59.5704 C   0  0  0  0  0  0  0  0  0  0  0  0
  -48.8849   56.0417   59.8675 C   0  0  0  0  0  0  0  0  0  0  0  0
  -47.6009   56.1998   59.1020 C   0  0  0  0  0  0  0  0  0  0  0  0
  -47.7150   57.1295   57.9609 C   0  0  0  0  0  0  0  0  0  0  0  0
  -47.1993   56.5781   56.7094 C   0  0  0  0  0  0  0  0  0  0  0  0
  -41.5769   59.1886   65.2446 O   0  0  0  0  0  0  0  0  0  0  0  0
  -41.3482   60.3090   66.1280 C   0  0  0  0  0  0  0  0  0  0  0  0
  -41.0471   61.5066   65.2565 C   0  0  0  0  0  0  0  0  0  0  0  0
  -39.9928   62.2694   65.8437 O   0  0  0  0  0  0  0  0  0  0  0  0
  -39.1835   61.7354   65.8704 H   0  0  0  0  0  0  0  0  0  0  0  0
  -40.6630   61.1808   63.8335 C   0  0  0  0  0  0  0  0  0  0  0  0
  -39.3531   61.7252   63.5756 O   0  0  0  0  0  0  0  0  0  0  0  0
  -38.1710   60.7560   63.1369 P   0  0  0  0  0  0  0  0  0  0  0  0
  -38.6059   59.3777   63.4407 O   0  0  0  0  0  0  0  0  0  0  0  0
  -37.8214   61.1102   61.7471 O   0  0  0  0  0  0  0  0  0  0  0  0
  -38.5758   60.9242   61.1665 H   0  0  0  0  0  0  0  0  0  0  0  0
  -36.9049   61.0804   64.0362 O   0  0  0  0  0  0  0  0  0  0  0  0
  -36.2584   60.0172   64.7747 C   0  0  0  0  0  0  0  0  0  0  0  0
  -35.1388   59.5193   63.8890 C   0  0  0  0  0  0  0  0  0  0  0  0
  -34.6601   58.1045   64.1471 N   0  0  0  0  0  0  0  0  0  0  0  0
  -34.2076   57.4493   62.8820 C   0  0  0  0  0  0  0  0  0  0  0  0
  -35.7754   57.2977   64.7306 C   0  0  0  0  0  0  0  0  0  0  0  0
  -33.5139   58.1308   65.1090 C   0  0  0  0  0  0  0  0  0  0  0  0
 34 33  1  0  0  0
 34 35  1  0  0  0
 34 36  1  0  0  0
 34 37  1  0  0  0
 22 23  1  0  0  0
 22 25  1  0  0  0
 22 21  1  0  0  0
 23 24  1  0  0  0
 27 26  1  0  0  0
 27 28  2  0  0  0
 27 31  1  0  0  0
 27 29  1  0  0  0
 25 26  1  0  0  0
 32 33  1  0  0  0
 32 31  1  0  0  0
 29 30  1  0  0  0
 20 21  1  0  0  0
 20  2  1  0  0  0
  1  2  2  0  0  0
  2  3  1  0  0  0
  3  4  1  0  0  0
  4  5  1  0  0  0
  5  6  1  0  0  0
  6  7  1  0  0  0
  7  8  1  0  0  0
  8  9  1  0  0  0
  9 10  1  0  0  0
 10 11  2  0  0  0
 11 12  1  0  0  0
 12 13  1  0  0  0
 13 14  1  0  0  0
 14 15  1  0  0  0
 15 16  1  0  0  0
 16 17  1  0  0  0
 17 18  1  0  0  0
 18 19  1  0  0  0
M  CHG 1  28  -1
M  END
> <minimizedAffinity>
-8.14715

> <CNNscore>
0.7952953577

> <CNNaffinity>
6.8066530228

> <CNN_VS>
5.4132995605

> <CNNaffinity_variance>
0.4037988782

$$$$
/media/chris/experiments/cd1a-new-docking/inputs/ligands/4x6c_ligand.pdb


 37 36  0  0  0  0  0  0  0  0999 V2000
  -40.9160   58.9936   65.1333 O   0  0  0  0  0  0  0  0  0  0  0  0
  -41.4371   59.9025   64.5630 C   0  0  0  0  0  0  0  0  0  0  0  0
  -42.9126   60.1250   64.4959 C   0  0  0  0  0  0  0  0  0  0  0  0
  -43.6922   59.1960   65.4072 C   0  0  0  0  0  0  0  0  0  0  0  0
  -44.8128   58.4726   64.6920 C   0  0  0  0  0  0  0  0  0  0  0  0
  -46.1999   58.8648   65.1435 C   0  0  0  0  0  0  0  0  0  0  0  0
  -47.1329   57.6963   65.3341 C   0  0  0  0  0  0  0  0  0  0  0  0
  -48.5456   58.0173   64.9256 C   0  0  0  0  0  0  0  0  0  0  0  0
  -48.8730   59.4783   64.8332 C   0  0  0  0  0  0  0  0  0  0  0  0
  -50.3057   59.7432   64.6371 C   0  0  0  0  0  0  0  0  0  0  0  0
  -50.9839   59.7299   63.5108 C   0  0  0  0  0  0  0  0  0  0  0  0
  -50.4841   59.4219   62.1471 C   0  0  0  0  0  0  0  0  0  0  0  0
  -50.5209   57.9595   61.7529 C   0  0  0  0  0  0  0  0  0  0  0  0
  -49.2076   57.4716   61.2059 C   0  0  0  0  0  0  0  0  0  0  0  0
  -49.3252   56.4798   60.0770 C   0  0  0  0  0  0  0  0  0  0  0  0
  -49.1668   57.1245   58.7176 C   0  0  0  0  0  0  0  0  0  0  0  0
  -47.7630   57.1321   58.1800 C   0  0  0  0  0  0  0  0  0  0  0  0
  -47.2106   55.7783   57.9772 C   0  0  0  0  0  0  0  0  0  0  0  0
  -47.6559   55.1500   56.7349 C   0  0  0  0  0  0  0  0  0  0  0  0
  -40.7666   60.8432   63.8978 O   0  0  0  0  0  0  0  0  0  0  0  0
  -41.3626   61.3573   62.6860 C   0  0  0  0  0  0  0  0  0  0  0  0
  -40.5861   60.7741   61.5278 C   0  0  0  0  0  0  0  0  0  0  0  0
  -40.8698   61.5172   60.3423 O   0  0  0  0  0  0  0  0  0  0  0  0
  -40.5610   62.4303   60.4515 H   0  0  0  0  0  0  0  0  0  0  0  0
  -39.0892   60.7344   61.7178 C   0  0  0  0  0  0  0  0  0  0  0  0
  -38.6606   59.3579   61.6997 O   0  0  0  0  0  0  0  0  0  0  0  0
  -37.8298   58.7767   62.9249 P   0  0  0  0  0  0  0  0  0  0  0  0
  -37.2943   59.9327   63.6720 O   0  0  0  0  0  0  0  0  0  0  0  0
  -38.7086   57.8156   63.6198 O   0  0  0  0  0  0  0  0  0  0  0  0
  -39.4735   58.2848   63.9882 H   0  0  0  0  0  0  0  0  0  0  0  0
  -36.6020   57.9556   62.3457 O   0  0  0  0  0  0  0  0  0  0  0  0
  -35.5291   57.5514   63.2284 C   0  0  0  0  0  0  0  0  0  0  0  0
  -34.3287   58.3780   62.8265 C   0  0  0  0  0  0  0  0  0  0  0  0
  -33.4958   58.9434   63.9597 N   0  0  0  0  0  0  0  0  0  0  0  0
  -32.0362   58.7390   63.7098 C   0  0  0  0  0  0  0  0  0  0  0  0
  -33.8618   58.2606   65.2385 C   0  0  0  0  0  0  0  0  0  0  0  0
  -33.7580   60.4109   64.0909 C   0  0  0  0  0  0  0  0  0  0  0  0
 34 33  1  0  0  0
 34 35  1  0  0  0
 34 36  1  0  0  0
 34 37  1  0  0  0
 22 23  1  0  0  0
 22 25  1  0  0  0
 22 21  1  0  0  0
 23 24  1  0  0  0
 27 26  1  0  0  0
 27 28  2  0  0  0
 27 31  1  0  0  0
 27 29  1  0  0  0
 25 26  1  0  0  0
 32 33  1  0  0  0
 32 31  1  0  0  0
 29 30  1  0  0  0
 20 21  1  0  0  0
 20  2  1  0  0  0
  1  2  2  0  0  0
  2  3  1  0  0  0
  3  4  1  0  0  0
  4  5  1  0  0  0
  5  6  1  0  0  0
  6  7  1  0  0  0
  7  8  1  0  0  0
  8  9  1  0  0  0
  9 10  1  0  0  0
 10 11  2  0  0  0
 11 12  1  0  0  0
 12 13  1  0  0  0
 13 14  1  0  0  0
 14 15  1  0  0  0
 15 16  1  0  0  0
 16 17  1  0  0  0
 17 18  1  0  0  0
 18 19  1  0  0  0
M  CHG 1  28  -1
M  END
> <minimizedAffinity>
-7.87008

> <CNNscore>
0.7581902146

> <CNNaffinity>
6.6969895363

> <CNN_VS>
5.0775918961

> <CNNaffinity_variance>
0.8054965138

$$$$
/media/chris/experiments/cd1a-new-docking/inputs/ligands/4x6c_ligand.pdb


 37 36  0  0  0  0  0  0  0  0999 V2000
  -41.8469   57.7554   65.5759 O   0  0  0  0  0  0  0  0  0  0  0  0
  -42.6046   58.6537   65.3715 C   0  0  0  0  0  0  0  0  0  0  0  0
  -44.0470   58.4815   65.0236 C   0  0  0  0  0  0  0  0  0  0  0  0
  -44.5764   57.1015   65.3650 C   0  0  0  0  0  0  0  0  0  0  0  0
  -45.9636   57.1354   65.9692 C   0  0  0  0  0  0  0  0  0  0  0  0
  -46.3734   58.4804   66.5212 C   0  0  0  0  0  0  0  0  0  0  0  0
  -47.6150   59.0494   65.8833 C   0  0  0  0  0  0  0  0  0  0  0  0
  -48.2418   58.0986   64.8991 C   0  0  0  0  0  0  0  0  0  0  0  0
  -49.7337   57.9706   64.9880 C   0  0  0  0  0  0  0  0  0  0  0  0
  -50.4094   59.2367   65.3068 C   0  0  0  0  0  0  0  0  0  0  0  0
  -50.9063   60.1211   64.4706 C   0  0  0  0  0  0  0  0  0  0  0  0
  -50.9346   60.0608   62.9873 C   0  0  0  0  0  0  0  0  0  0  0  0
  -49.6364   60.4208   62.2941 C   0  0  0  0  0  0  0  0  0  0  0  0
  -49.5667   59.9010   60.8844 C   0  0  0  0  0  0  0  0  0  0  0  0
  -50.1229   58.5127   60.6972 C   0  0  0  0  0  0  0  0  0  0  0  0
  -49.1710   57.4361   61.1700 C   0  0  0  0  0  0  0  0  0  0  0  0
  -49.0510   56.2501   60.2542 C   0  0  0  0  0  0  0  0  0  0  0  0
  -48.4136   56.5747   58.9629 C   0  0  0  0  0  0  0  0  0  0  0  0
  -47.0281   56.1191   58.8688 C   0  0  0  0  0  0  0  0  0  0  0  0
  -42.2596   59.9404   65.4187 O   0  0  0  0  0  0  0  0  0  0  0  0
  -40.9548   60.2628   65.9491 C   0  0  0  0  0  0  0  0  0  0  0  0
  -40.3759   61.3497   65.0727 C   0  0  0  0  0  0  0  0  0  0  0  0
  -40.0014   62.4646   65.8820 O   0  0  0  0  0  0  0  0  0  0  0  0
  -39.2978   62.1979   66.4942 H   0  0  0  0  0  0  0  0  0  0  0  0
  -39.1804   60.9369   64.2488 C   0  0  0  0  0  0  0  0  0  0  0  0
  -39.6483   60.2231   63.0867 O   0  0  0  0  0  0  0  0  0  0  0  0
  -38.9173   60.4299   61.6896 P   0  0  0  0  0  0  0  0  0  0  0  0
  -39.9419   60.8842   60.7279 O   0  0  0  0  0  0  0  0  0  0  0  0
  -37.7412   61.2846   61.9449 O   0  0  0  0  0  0  0  0  0  0  0  0
  -38.0357   62.1581   62.2470 H   0  0  0  0  0  0  0  0  0  0  0  0
  -38.3759   59.0210   61.2006 O   0  0  0  0  0  0  0  0  0  0  0  0
  -37.0290   58.6138   61.5382 C   0  0  0  0  0  0  0  0  0  0  0  0
  -37.1315   57.9098   62.8722 C   0  0  0  0  0  0  0  0  0  0  0  0
  -35.8712   57.8842   63.7139 N   0  0  0  0  0  0  0  0  0  0  0  0
  -36.0243   56.9691   64.8861 C   0  0  0  0  0  0  0  0  0  0  0  0
  -35.5781   59.2610   64.2177 C   0  0  0  0  0  0  0  0  0  0  0  0
  -34.7222   57.4078   62.8818 C   0  0  0  0  0  0  0  0  0  0  0  0
 34 33  1  0  0  0
 34 35  1  0  0  0
 34 36  1  0  0  0
 34 37  1  0  0  0
 22 23  1  0  0  0
 22 25  1  0  0  0
 22 21  1  0  0  0
 23 24  1  0  0  0
 27 26  1  0  0  0
 27 28  2  0  0  0
 27 31  1  0  0  0
 27 29  1  0  0  0
 25 26  1  0  0  0
 32 33  1  0  0  0
 32 31  1  0  0  0
 29 30  1  0  0  0
 20 21  1  0  0  0
 20  2  1  0  0  0
  1  2  2  0  0  0
  2  3  1  0  0  0
  3  4  1  0  0  0
  4  5  1  0  0  0
  5  6  1  0  0  0
  6  7  1  0  0  0
  7  8  1  0  0  0
  8  9  1  0  0  0
  9 10  1  0  0  0
 10 11  2  0  0  0
 11 12  1  0  0  0
 12 13  1  0  0  0
 13 14  1  0  0  0
 14 15  1  0  0  0
 15 16  1  0  0  0
 16 17  1  0  0  0
 17 18  1  0  0  0
 18 19  1  0  0  0
M  CHG 1  28  -1
M  END
> <minimizedAffinity>
-8.25470

> <CNNscore>
0.7551446557

> <CNNaffinity>
6.9286437035

> <CNN_VS>
5.2321281433

> <CNNaffinity_variance>
0.4816940725

$$$$
/media/chris/experiments/cd1a-new-docking/inputs/ligands/4x6c_ligand.pdb


 37 36  0  0  0  0  0  0  0  0999 V2000
  -41.9125   59.4308   67.1097 O   0  0  0  0  0  0  0  0  0  0  0  0
  -42.0346   59.6449   65.9426 C   0  0  0  0  0  0  0  0  0  0  0  0
  -43.3357   59.9285   65.2658 C   0  0  0  0  0  0  0  0  0  0  0  0
  -44.0654   58.6695   64.8369 C   0  0  0  0  0  0  0  0  0  0  0  0
  -45.4482   58.5552   65.4412 C   0  0  0  0  0  0  0  0  0  0  0  0
  -46.2993   59.7947   65.2961 C   0  0  0  0  0  0  0  0  0  0  0  0
  -47.7439   59.5910   65.6757 C   0  0  0  0  0  0  0  0  0  0  0  0
  -48.2955   58.2900   65.1572 C   0  0  0  0  0  0  0  0  0  0  0  0
  -49.7904   58.2199   65.0541 C   0  0  0  0  0  0  0  0  0  0  0  0
  -50.4449   59.5310   65.1719 C   0  0  0  0  0  0  0  0  0  0  0  0
  -51.0155   60.2383   64.2219 C   0  0  0  0  0  0  0  0  0  0  0  0
  -51.1676   59.8869   62.7874 C   0  0  0  0  0  0  0  0  0  0  0  0
  -49.9447   60.1217   61.9243 C   0  0  0  0  0  0  0  0  0  0  0  0
  -49.7484   59.0476   60.8899 C   0  0  0  0  0  0  0  0  0  0  0  0
  -49.3301   57.7095   61.4434 C   0  0  0  0  0  0  0  0  0  0  0  0
  -49.2970   56.6276   60.3865 C   0  0  0  0  0  0  0  0  0  0  0  0
  -49.1750   57.1260   58.9735 C   0  0  0  0  0  0  0  0  0  0  0  0
  -47.8143   56.9784   58.4204 C   0  0  0  0  0  0  0  0  0  0  0  0
  -47.7985   56.5158   57.0340 C   0  0  0  0  0  0  0  0  0  0  0  0
  -41.0189   59.6512   65.0793 O   0  0  0  0  0  0  0  0  0  0  0  0
  -40.8758   60.8079   64.2252 C   0  0  0  0  0  0  0  0  0  0  0  0
  -39.9419   61.7657   64.9285 C   0  0  0  0  0  0  0  0  0  0  0  0
  -40.6577   62.4693   65.9437 O   0  0  0  0  0  0  0  0  0  0  0  0
  -40.9679   61.8414   66.6148 H   0  0  0  0  0  0  0  0  0  0  0  0
  -38.7276   61.1273   65.5581 C   0  0  0  0  0  0  0  0  0  0  0  0
  -37.7432   62.1528   65.7996 O   0  0  0  0  0  0  0  0  0  0  0  0
  -36.3900   62.1564   64.9642 P   0  0  0  0  0  0  0  0  0  0  0  0
  -36.7622   62.0828   63.5369 O   0  0  0  0  0  0  0  0  0  0  0  0
  -35.5956   63.3050   65.4422 O   0  0  0  0  0  0  0  0  0  0  0  0
  -36.0627   64.1296   65.2356 H   0  0  0  0  0  0  0  0  0  0  0  0
  -35.5797   60.8418   65.3282 O   0  0  0  0  0  0  0  0  0  0  0  0
  -35.1041   59.9764   64.2705 C   0  0  0  0  0  0  0  0  0  0  0  0
  -33.6243   60.2572   64.1399 C   0  0  0  0  0  0  0  0  0  0  0  0
  -32.7697   59.1166   63.6239 N   0  0  0  0  0  0  0  0  0  0  0  0
  -33.4669   58.3724   62.5308 C   0  0  0  0  0  0  0  0  0  0  0  0
  -32.4790   58.1649   64.7398 C   0  0  0  0  0  0  0  0  0  0  0  0
  -31.4815   59.6578   63.0883 C   0  0  0  0  0  0  0  0  0  0  0  0
 34 33  1  0  0  0
 34 35  1  0  0  0
 34 36  1  0  0  0
 34 37  1  0  0  0
 22 23  1  0  0  0
 22 25  1  0  0  0
 22 21  1  0  0  0
 23 24  1  0  0  0
 27 26  1  0  0  0
 27 28  2  0  0  0
 27 31  1  0  0  0
 27 29  1  0  0  0
 25 26  1  0  0  0
 32 33  1  0  0  0
 32 31  1  0  0  0
 29 30  1  0  0  0
 20 21  1  0  0  0
 20  2  1  0  0  0
  1  2  2  0  0  0
  2  3  1  0  0  0
  3  4  1  0  0  0
  4  5  1  0  0  0
  5  6  1  0  0  0
  6  7  1  0  0  0
  7  8  1  0  0  0
  8  9  1  0  0  0
  9 10  1  0  0  0
 10 11  2  0  0  0
 11 12  1  0  0  0
 12 13  1  0  0  0
 13 14  1  0  0  0
 14 15  1  0  0  0
 15 16  1  0  0  0
 16 17  1  0  0  0
 17 18  1  0  0  0
 18 19  1  0  0  0
M  CHG 1  28  -1
M  END
> <minimizedAffinity>
-8.06578

> <CNNscore>
0.6566293836

> <CNNaffinity>
6.3161401749

> <CNN_VS>
4.1473631859

> <CNNaffinity_variance>
0.1500767320

$$$$
/media/chris/experiments/cd1a-new-docking/inputs/ligands/4x6c_ligand.pdb


 37 36  0  0  0  0  0  0  0  0999 V2000
  -40.7599   60.0320   65.8950 O   0  0  0  0  0  0  0  0  0  0  0  0
  -41.3448   60.0755   64.8563 C   0  0  0  0  0  0  0  0  0  0  0  0
  -42.8125   60.3180   64.7212 C   0  0  0  0  0  0  0  0  0  0  0  0
  -43.6523   59.2506   65.3972 C   0  0  0  0  0  0  0  0  0  0  0  0
  -45.1336   59.4099   65.1308 C   0  0  0  0  0  0  0  0  0  0  0  0
  -45.8929   58.1090   65.0175 C   0  0  0  0  0  0  0  0  0  0  0  0
  -47.3122   58.1850   65.5194 C   0  0  0  0  0  0  0  0  0  0  0  0
  -48.3212   58.0320   64.4129 C   0  0  0  0  0  0  0  0  0  0  0  0
  -49.7565   58.0130   64.8483 C   0  0  0  0  0  0  0  0  0  0  0  0
  -50.3104   59.3535   65.0885 C   0  0  0  0  0  0  0  0  0  0  0  0
  -50.8984   60.1522   64.2255 C   0  0  0  0  0  0  0  0  0  0  0  0
  -51.1763   59.8992   62.7890 C   0  0  0  0  0  0  0  0  0  0  0  0
  -50.0157   60.1439   61.8464 C   0  0  0  0  0  0  0  0  0  0  0  0
  -49.8997   59.0885   60.7811 C   0  0  0  0  0  0  0  0  0  0  0  0
  -50.4476   57.7392   61.1694 C   0  0  0  0  0  0  0  0  0  0  0  0
  -49.9592   56.6304   60.2635 C   0  0  0  0  0  0  0  0  0  0  0  0
  -48.4730   56.6040   60.0395 C   0  0  0  0  0  0  0  0  0  0  0  0
  -48.0962   56.7519   58.6199 C   0  0  0  0  0  0  0  0  0  0  0  0
  -47.6743   55.4985   57.9978 C   0  0  0  0  0  0  0  0  0  0  0  0
  -40.7628   59.9039   63.6694 O   0  0  0  0  0  0  0  0  0  0  0  0
  -40.1955   61.0686   63.0294 C   0  0  0  0  0  0  0  0  0  0  0  0
  -38.8560   60.6557   62.4640 C   0  0  0  0  0  0  0  0  0  0  0  0
  -38.9339   60.6120   61.0392 O   0  0  0  0  0  0  0  0  0  0  0  0
  -39.1166   61.5014   60.6979 H   0  0  0  0  0  0  0  0  0  0  0  0
  -37.6983   61.5440   62.8502 C   0  0  0  0  0  0  0  0  0  0  0  0
  -37.9117   62.0172   64.1953 O   0  0  0  0  0  0  0  0  0  0  0  0
  -37.0634   61.3993   65.3902 P   0  0  0  0  0  0  0  0  0  0  0  0
  -36.4801   62.5316   66.1377 O   0  0  0  0  0  0  0  0  0  0  0  0
  -37.9471   60.4505   66.0958 O   0  0  0  0  0  0  0  0  0  0  0  0
  -38.6901   60.9331   66.4907 H   0  0  0  0  0  0  0  0  0  0  0  0
  -35.8720   60.5565   64.7678 O   0  0  0  0  0  0  0  0  0  0  0  0
  -34.5327   60.7116   65.2933 C   0  0  0  0  0  0  0  0  0  0  0  0
  -33.5996   60.4411   64.1349 C   0  0  0  0  0  0  0  0  0  0  0  0
  -33.1342   59.0080   63.9711 N   0  0  0  0  0  0  0  0  0  0  0  0
  -31.7005   58.9514   63.5513 C   0  0  0  0  0  0  0  0  0  0  0  0
  -33.9641   58.3284   62.9296 C   0  0  0  0  0  0  0  0  0  0  0  0
  -33.2812   58.2815   65.2711 C   0  0  0  0  0  0  0  0  0  0  0  0
 34 33  1  0  0  0
 34 35  1  0  0  0
 34 36  1  0  0  0
 34 37  1  0  0  0
 22 23  1  0  0  0
 22 25  1  0  0  0
 22 21  1  0  0  0
 23 24  1  0  0  0
 27 26  1  0  0  0
 27 28  2  0  0  0
 27 31  1  0  0  0
 27 29  1  0  0  0
 25 26  1  0  0  0
 32 33  1  0  0  0
 32 31  1  0  0  0
 29 30  1  0  0  0
 20 21  1  0  0  0
 20  2  1  0  0  0
  1  2  2  0  0  0
  2  3  1  0  0  0
  3  4  1  0  0  0
  4  5  1  0  0  0
  5  6  1  0  0  0
  6  7  1  0  0  0
  7  8  1  0  0  0
  8  9  1  0  0  0
  9 10  1  0  0  0
 10 11  2  0  0  0
 11 12  1  0  0  0
 12 13  1  0  0  0
 13 14  1  0  0  0
 14 15  1  0  0  0
 15 16  1  0  0  0
 16 17  1  0  0  0
 17 18  1  0  0  0
 18 19  1  0  0  0
M  CHG 1  28  -1
M  END
> <minimizedAffinity>
-7.88766

> <CNNscore>
0.6559570432

> <CNNaffinity>
6.3494033813

> <CNN_VS>
4.1649360657

> <CNNaffinity_variance>
0.3212878406

$$$$
