/media/chris/experiments/cd1a-new-docking/inputs/ligands/4x6c_ligand.pdb


 37 36  0  0  0  0  0  0  0  0999 V2000
  -42.5764   57.3550   66.2856 O   0  0  0  0  0  0  0  0  0  0  0  0
  -42.8172   58.2366   65.5189 C   0  0  0  0  0  0  0  0  0  0  0  0
  -44.1760   58.5399   64.9777 C   0  0  0  0  0  0  0  0  0  0  0  0
  -45.0922   57.3308   64.9697 C   0  0  0  0  0  0  0  0  0  0  0  0
  -46.0967   57.3453   66.1016 C   0  0  0  0  0  0  0  0  0  0  0  0
  -47.2443   58.3083   65.9081 C   0  0  0  0  0  0  0  0  0  0  0  0
  -48.0859   58.0183   64.6916 C   0  0  0  0  0  0  0  0  0  0  0  0
  -49.5571   58.1951   64.9559 C   0  0  0  0  0  0  0  0  0  0  0  0
  -50.0380   59.6155   64.9955 C   0  0  0  0  0  0  0  0  0  0  0  0
  -51.1608   59.8761   64.0830 C   0  0  0  0  0  0  0  0  0  0  0  0
  -51.1096   60.2055   62.8113 C   0  0  0  0  0  0  0  0  0  0  0  0
  -49.9056   60.3779   61.9598 C   0  0  0  0  0  0  0  0  0  0  0  0
  -49.6519   59.2724   60.9555 C   0  0  0  0  0  0  0  0  0  0  0  0
  -50.4215   58.0178   61.2652 C   0  0  0  0  0  0  0  0  0  0  0  0
  -50.2371   56.9037   60.2670 C   0  0  0  0  0  0  0  0  0  0  0  0
  -49.0113   57.0953   59.4014 C   0  0  0  0  0  0  0  0  0  0  0  0
  -48.1130   55.8941   59.3008 C   0  0  0  0  0  0  0  0  0  0  0  0
  -47.4596   55.7655   57.9834 C   0  0  0  0  0  0  0  0  0  0  0  0
  -46.9596   57.0341   57.4573 C   0  0  0  0  0  0  0  0  0  0  0  0
  -41.8966   59.0695   65.0334 O   0  0  0  0  0  0  0  0  0  0  0  0
  -42.3389   60.3766   64.6042 C   0  0  0  0  0  0  0  0  0  0  0  0
  -41.1744   61.0276   63.8939 C   0  0  0  0  0  0  0  0  0  0  0  0
  -41.0140   62.3642   64.3693 O   0  0  0  0  0  0  0  0  0  0  0  0
  -40.7889   62.3470   65.3126 H   0  0  0  0  0  0  0  0  0  0  0  0
  -39.8548   60.3093   64.0397 C   0  0  0  0  0  0  0  0  0  0  0  0
  -39.5671   59.6231   62.8046 O   0  0  0  0  0  0  0  0  0  0  0  0
  -38.7551   60.3713   61.6600 P   0  0  0  0  0  0  0  0  0  0  0  0
  -39.6796   60.5556   60.5231 O   0  0  0  0  0  0  0  0  0  0  0  0
  -38.1343   61.5574   62.2818 O   0  0  0  0  0  0  0  0  0  0  0  0
  -38.8279   62.1639   62.5851 H   0  0  0  0  0  0  0  0  0  0  0  0
  -37.5774   59.4200   61.1854 O   0  0  0  0  0  0  0  0  0  0  0  0
  -37.1647   58.3161   62.0249 C   0  0  0  0  0  0  0  0  0  0  0  0
  -36.3140   58.9224   63.1177 C   0  0  0  0  0  0  0  0  0  0  0  0
  -35.0262   58.1934   63.4456 N   0  0  0  0  0  0  0  0  0  0  0  0
  -34.6082   57.3043   62.3189 C   0  0  0  0  0  0  0  0  0  0  0  0
  -35.2233   57.3550   64.6679 C   0  0  0  0  0  0  0  0  0  0  0  0
  -33.9375   59.1882   63.6995 C   0  0  0  0  0  0  0  0  0  0  0  0
 34 33  1  0  0  0
 34 35  1  0  0  0
 34 36  1  0  0  0
 34 37  1  0  0  0
 22 23  1  0  0  0
 22 25  1  0  0  0
 22 21  1  0  0  0
 23 24  1  0  0  0
 27 26  1  0  0  0
 27 28  2  0  0  0
 27 31  1  0  0  0
 27 29  1  0  0  0
 25 26  1  0  0  0
 32 33  1  0  0  0
 32 31  1  0  0  0
 29 30  1  0  0  0
 20 21  1  0  0  0
 20  2  1  0  0  0
  1  2  2  0  0  0
  2  3  1  0  0  0
  3  4  1  0  0  0
  4  5  1  0  0  0
  5  6  1  0  0  0
  6  7  1  0  0  0
  7  8  1  0  0  0
  8  9  1  0  0  0
  9 10  1  0  0  0
 10 11  2  0  0  0
 11 12  1  0  0  0
 12 13  1  0  0  0
 13 14  1  0  0  0
 14 15  1  0  0  0
 15 16  1  0  0  0
 16 17  1  0  0  0
 17 18  1  0  0  0
 18 19  1  0  0  0
M  CHG 1  28  -1
M  END
> <minimizedAffinity>
-8.09176

> <CNNscore>
0.8532834649

> <CNNaffinity>
6.9767251015

> <CNN_VS>
5.9531240463

> <CNNaffinity_variance>
0.3134026825

$$$$
/media/chris/experiments/cd1a-new-docking/inputs/ligands/4x6c_ligand.pdb


 37 36  0  0  0  0  0  0  0  0999 V2000
  -41.9779   58.0922   65.8054 O   0  0  0  0  0  0  0  0  0  0  0  0
  -42.4000   59.2020   65.6904 C   0  0  0  0  0  0  0  0  0  0  0  0
  -43.8474   59.5479   65.5625 C   0  0  0  0  0  0  0  0  0  0  0  0
  -44.7148   58.3478   65.2330 C   0  0  0  0  0  0  0  0  0  0  0  0
  -45.9122   58.2168   66.1494 C   0  0  0  0  0  0  0  0  0  0  0  0
  -46.8127   59.4292   66.1800 C   0  0  0  0  0  0  0  0  0  0  0  0
  -47.6291   59.6149   64.9266 C   0  0  0  0  0  0  0  0  0  0  0  0
  -48.4577   58.4026   64.5962 C   0  0  0  0  0  0  0  0  0  0  0  0
  -49.8144   58.3564   65.2346 C   0  0  0  0  0  0  0  0  0  0  0  0
  -50.5240   59.6431   65.1888 C   0  0  0  0  0  0  0  0  0  0  0  0
  -51.0873   60.2194   64.1500 C   0  0  0  0  0  0  0  0  0  0  0  0
  -51.1732   59.7105   62.7579 C   0  0  0  0  0  0  0  0  0  0  0  0
  -50.0472   60.1338   61.8370 C   0  0  0  0  0  0  0  0  0  0  0  0
  -49.7509   59.1123   60.7735 C   0  0  0  0  0  0  0  0  0  0  0  0
  -49.7966   57.6814   61.2449 C   0  0  0  0  0  0  0  0  0  0  0  0
  -49.8676   56.6941   60.1009 C   0  0  0  0  0  0  0  0  0  0  0  0
  -49.1956   57.1438   58.8336 C   0  0  0  0  0  0  0  0  0  0  0  0
  -47.8215   56.6245   58.6882 C   0  0  0  0  0  0  0  0  0  0  0  0
  -47.1378   57.1182   57.4945 C   0  0  0  0  0  0  0  0  0  0  0  0
  -41.6288   60.2886   65.6523 O   0  0  0  0  0  0  0  0  0  0  0  0
  -40.8046   60.4815   64.4811 C   0  0  0  0  0  0  0  0  0  0  0  0
  -39.7691   61.5243   64.8345 C   0  0  0  0  0  0  0  0  0  0  0  0
  -40.2538   62.3321   65.9071 O   0  0  0  0  0  0  0  0  0  0  0  0
  -40.3745   61.7823   66.6970 H   0  0  0  0  0  0  0  0  0  0  0  0
  -38.4179   60.9761   65.2248 C   0  0  0  0  0  0  0  0  0  0  0  0
  -37.4270   62.0010   65.0083 O   0  0  0  0  0  0  0  0  0  0  0  0
  -36.1298   62.0473   65.9273 P   0  0  0  0  0  0  0  0  0  0  0  0
  -36.5178   61.5191   67.2508 O   0  0  0  0  0  0  0  0  0  0  0  0
  -35.0491   61.3802   65.1751 O   0  0  0  0  0  0  0  0  0  0  0  0
  -35.2752   60.4459   65.0444 H   0  0  0  0  0  0  0  0  0  0  0  0
  -35.7062   63.5654   66.1099 O   0  0  0  0  0  0  0  0  0  0  0  0
  -34.3390   63.9641   65.8544 C   0  0  0  0  0  0  0  0  0  0  0  0
  -34.4163   65.0797   64.8370 C   0  0  0  0  0  0  0  0  0  0  0  0
  -34.0033   64.7251   63.4223 N   0  0  0  0  0  0  0  0  0  0  0  0
  -33.2915   65.8647   62.7671 C   0  0  0  0  0  0  0  0  0  0  0  0
  -35.2173   64.3928   62.6153 C   0  0  0  0  0  0  0  0  0  0  0  0
  -33.0885   63.5411   63.4489 C   0  0  0  0  0  0  0  0  0  0  0  0
 34 33  1  0  0  0
 34 35  1  0  0  0
 34 36  1  0  0  0
 34 37  1  0  0  0
 22 23  1  0  0  0
 22 25  1  0  0  0
 22 21  1  0  0  0
 23 24  1  0  0  0
 27 26  1  0  0  0
 27 28  2  0  0  0
 27 31  1  0  0  0
 27 29  1  0  0  0
 25 26  1  0  0  0
 32 33  1  0  0  0
 32 31  1  0  0  0
 29 30  1  0  0  0
 20 21  1  0  0  0
 20  2  1  0  0  0
  1  2  2  0  0  0
  2  3  1  0  0  0
  3  4  1  0  0  0
  4  5  1  0  0  0
  5  6  1  0  0  0
  6  7  1  0  0  0
  7  8  1  0  0  0
  8  9  1  0  0  0
  9 10  1  0  0  0
 10 11  2  0  0  0
 11 12  1  0  0  0
 12 13  1  0  0  0
 13 14  1  0  0  0
 14 15  1  0  0  0
 15 16  1  0  0  0
 16 17  1  0  0  0
 17 18  1  0  0  0
 18 19  1  0  0  0
M  CHG 1  28  -1
M  END
> <minimizedAffinity>
-8.19233

> <CNNscore>
0.7487766743

> <CNNaffinity>
6.3296394348

> <CNN_VS>
4.7394862175

> <CNNaffinity_variance>
0.3198270202

$$$$
/media/chris/experiments/cd1a-new-docking/inputs/ligands/4x6c_ligand.pdb


 37 36  0  0  0  0  0  0  0  0999 V2000
  -40.3594   61.6884   65.9810 O   0  0  0  0  0  0  0  0  0  0  0  0
  -40.5392   61.1867   64.9137 C   0  0  0  0  0  0  0  0  0  0  0  0
  -41.8265   60.5691   64.4750 C   0  0  0  0  0  0  0  0  0  0  0  0
  -42.5036   59.7711   65.5733 C   0  0  0  0  0  0  0  0  0  0  0  0
  -41.8935   58.3997   65.7667 C   0  0  0  0  0  0  0  0  0  0  0  0
  -42.8990   57.2821   65.9134 C   0  0  0  0  0  0  0  0  0  0  0  0
  -44.0272   57.3412   64.9153 C   0  0  0  0  0  0  0  0  0  0  0  0
  -45.3796   57.3045   65.5749 C   0  0  0  0  0  0  0  0  0  0  0  0
  -46.4469   58.1152   64.9010 C   0  0  0  0  0  0  0  0  0  0  0  0
  -47.8086   57.7379   65.3066 C   0  0  0  0  0  0  0  0  0  0  0  0
  -48.9345   57.9620   64.6658 C   0  0  0  0  0  0  0  0  0  0  0  0
  -49.1218   58.6343   63.3554 C   0  0  0  0  0  0  0  0  0  0  0  0
  -48.9434   57.7518   62.1369 C   0  0  0  0  0  0  0  0  0  0  0  0
  -49.9536   58.0368   61.0597 C   0  0  0  0  0  0  0  0  0  0  0  0
  -49.9708   57.0365   59.9324 C   0  0  0  0  0  0  0  0  0  0  0  0
  -48.8186   57.2246   58.9703 C   0  0  0  0  0  0  0  0  0  0  0  0
  -47.7047   56.2252   59.1129 C   0  0  0  0  0  0  0  0  0  0  0  0
  -47.2397   55.6845   57.8205 C   0  0  0  0  0  0  0  0  0  0  0  0
  -47.1830   56.6871   56.7586 C   0  0  0  0  0  0  0  0  0  0  0  0
  -39.6049   61.1029   63.9667 O   0  0  0  0  0  0  0  0  0  0  0  0
  -38.2987   60.6244   64.3580 C   0  0  0  0  0  0  0  0  0  0  0  0
  -37.2951   61.2619   63.4248 C   0  0  0  0  0  0  0  0  0  0  0  0
  -37.9244   61.5551   62.1774 O   0  0  0  0  0  0  0  0  0  0  0  0
  -38.6280   62.2081   62.3158 H   0  0  0  0  0  0  0  0  0  0  0  0
  -36.6543   62.5265   63.9432 C   0  0  0  0  0  0  0  0  0  0  0  0
  -36.7508   62.5333   65.3818 O   0  0  0  0  0  0  0  0  0  0  0  0
  -35.4496   62.8020   66.2559 P   0  0  0  0  0  0  0  0  0  0  0  0
  -35.2106   64.2594   66.2397 O   0  0  0  0  0  0  0  0  0  0  0  0
  -35.6556   62.1213   67.5494 O   0  0  0  0  0  0  0  0  0  0  0  0
  -36.4030   62.5292   68.0141 H   0  0  0  0  0  0  0  0  0  0  0  0
  -34.2203   62.0952   65.5444 O   0  0  0  0  0  0  0  0  0  0  0  0
  -34.1725   60.6514   65.4621 C   0  0  0  0  0  0  0  0  0  0  0  0
  -33.5670   60.3334   64.1138 C   0  0  0  0  0  0  0  0  0  0  0  0
  -33.4301   58.8631   63.7716 N   0  0  0  0  0  0  0  0  0  0  0  0
  -34.7692   58.2061   63.6716 C   0  0  0  0  0  0  0  0  0  0  0  0
  -32.6380   58.1736   64.8357 C   0  0  0  0  0  0  0  0  0  0  0  0
  -32.7262   58.7172   62.4591 C   0  0  0  0  0  0  0  0  0  0  0  0
 34 33  1  0  0  0
 34 35  1  0  0  0
 34 36  1  0  0  0
 34 37  1  0  0  0
 22 23  1  0  0  0
 22 25  1  0  0  0
 22 21  1  0  0  0
 23 24  1  0  0  0
 27 26  1  0  0  0
 27 28  2  0  0  0
 27 31  1  0  0  0
 27 29  1  0  0  0
 25 26  1  0  0  0
 32 33  1  0  0  0
 32 31  1  0  0  0
 29 30  1  0  0  0
 20 21  1  0  0  0
 20  2  1  0  0  0
  1  2  2  0  0  0
  2  3  1  0  0  0
  3  4  1  0  0  0
  4  5  1  0  0  0
  5  6  1  0  0  0
  6  7  1  0  0  0
  7  8  1  0  0  0
  8  9  1  0  0  0
  9 10  1  0  0  0
 10 11  2  0  0  0
 11 12  1  0  0  0
 12 13  1  0  0  0
 13 14  1  0  0  0
 14 15  1  0  0  0
 15 16  1  0  0  0
 16 17  1  0  0  0
 17 18  1  0  0  0
 18 19  1  0  0  0
M  CHG 1  28  -1
M  END
> <minimizedAffinity>
-7.90338

> <CNNscore>
0.7201392651

> <CNNaffinity>
6.5279321671

> <CNN_VS>
4.7010202408

> <CNNaffinity_variance>
0.2359039485

$$$$
/media/chris/experiments/cd1a-new-docking/inputs/ligands/4x6c_ligand.pdb


 37 36  0  0  0  0  0  0  0  0999 V2000
  -40.8079   61.8185   65.2986 O   0  0  0  0  0  0  0  0  0  0  0  0
  -41.3899   60.8751   64.8579 C   0  0  0  0  0  0  0  0  0  0  0  0
  -41.6887   59.6299   65.6269 C   0  0  0  0  0  0  0  0  0  0  0  0
  -43.1235   59.5672   66.1154 C   0  0  0  0  0  0  0  0  0  0  0  0
  -44.0101   58.7165   65.2318 C   0  0  0  0  0  0  0  0  0  0  0  0
  -45.4685   58.7139   65.6251 C   0  0  0  0  0  0  0  0  0  0  0  0
  -46.0687   57.3355   65.7349 C   0  0  0  0  0  0  0  0  0  0  0  0
  -47.5231   57.3102   65.3483 C   0  0  0  0  0  0  0  0  0  0  0  0
  -48.0182   58.5271   64.6242 C   0  0  0  0  0  0  0  0  0  0  0  0
  -49.1561   59.1782   65.2892 C   0  0  0  0  0  0  0  0  0  0  0  0
  -50.3176   59.5065   64.7679 C   0  0  0  0  0  0  0  0  0  0  0  0
  -50.7907   59.2850   63.3782 C   0  0  0  0  0  0  0  0  0  0  0  0
  -50.4146   60.3614   62.3806 C   0  0  0  0  0  0  0  0  0  0  0  0
  -49.7705   59.8052   61.1404 C   0  0  0  0  0  0  0  0  0  0  0  0
  -49.7143   58.3002   61.0812 C   0  0  0  0  0  0  0  0  0  0  0  0
  -49.9947   57.7618   59.6956 C   0  0  0  0  0  0  0  0  0  0  0  0
  -49.1286   56.6062   59.2778 C   0  0  0  0  0  0  0  0  0  0  0  0
  -48.0443   56.9960   58.3552 C   0  0  0  0  0  0  0  0  0  0  0  0
  -46.7876   56.2935   58.6069 C   0  0  0  0  0  0  0  0  0  0  0  0
  -41.8474   60.8035   63.6078 O   0  0  0  0  0  0  0  0  0  0  0  0
  -41.2748   61.7053   62.6347 C   0  0  0  0  0  0  0  0  0  0  0  0
  -40.4366   60.8696   61.6949 C   0  0  0  0  0  0  0  0  0  0  0  0
  -40.6978   61.2623   60.3474 O   0  0  0  0  0  0  0  0  0  0  0  0
  -40.4223   62.1835   60.2199 H   0  0  0  0  0  0  0  0  0  0  0  0
  -38.9475   60.9420   61.9313 C   0  0  0  0  0  0  0  0  0  0  0  0
  -38.3006   59.9722   61.0828 O   0  0  0  0  0  0  0  0  0  0  0  0
  -37.6540   58.6701   61.7276 P   0  0  0  0  0  0  0  0  0  0  0  0
  -38.5703   58.2135   62.7921 O   0  0  0  0  0  0  0  0  0  0  0  0
  -37.3328   57.7561   60.6139 O   0  0  0  0  0  0  0  0  0  0  0  0
  -38.1527   57.4818   60.1740 H   0  0  0  0  0  0  0  0  0  0  0  0
  -36.2807   59.0832   62.4062 O   0  0  0  0  0  0  0  0  0  0  0  0
  -36.1619   59.0740   63.8482 C   0  0  0  0  0  0  0  0  0  0  0  0
  -35.4609   60.3625   64.2142 C   0  0  0  0  0  0  0  0  0  0  0  0
  -36.2577   61.3437   65.0508 N   0  0  0  0  0  0  0  0  0  0  0  0
  -37.5323   60.7296   65.5335 C   0  0  0  0  0  0  0  0  0  0  0  0
  -36.5888   62.5481   64.2291 C   0  0  0  0  0  0  0  0  0  0  0  0
  -35.4488   61.7629   66.2380 C   0  0  0  0  0  0  0  0  0  0  0  0
 34 33  1  0  0  0
 34 35  1  0  0  0
 34 36  1  0  0  0
 34 37  1  0  0  0
 22 23  1  0  0  0
 22 25  1  0  0  0
 22 21  1  0  0  0
 23 24  1  0  0  0
 27 26  1  0  0  0
 27 28  2  0  0  0
 27 31  1  0  0  0
 27 29  1  0  0  0
 25 26  1  0  0  0
 32 33  1  0  0  0
 32 31  1  0  0  0
 29 30  1  0  0  0
 20 21  1  0  0  0
 20  2  1  0  0  0
  1  2  2  0  0  0
  2  3  1  0  0  0
  3  4  1  0  0  0
  4  5  1  0  0  0
  5  6  1  0  0  0
  6  7  1  0  0  0
  7  8  1  0  0  0
  8  9  1  0  0  0
  9 10  1  0  0  0
 10 11  2  0  0  0
 11 12  1  0  0  0
 12 13  1  0  0  0
 13 14  1  0  0  0
 14 15  1  0  0  0
 15 16  1  0  0  0
 16 17  1  0  0  0
 17 18  1  0  0  0
 18 19  1  0  0  0
M  CHG 1  28  -1
M  END
> <minimizedAffinity>
-7.89200

> <CNNscore>
0.7079396248

> <CNNaffinity>
6.8332853317

> <CNN_VS>
4.8375535011

> <CNNaffinity_variance>
0.6943053007

$$$$
/media/chris/experiments/cd1a-new-docking/inputs/ligands/4x6c_ligand.pdb


 37 36  0  0  0  0  0  0  0  0999 V2000
  -40.2505   60.0791   65.1926 O   0  0  0  0  0  0  0  0  0  0  0  0
  -41.3329   59.9119   64.7198 C   0  0  0  0  0  0  0  0  0  0  0  0
  -42.4721   59.2525   65.4257 C   0  0  0  0  0  0  0  0  0  0  0  0
  -43.8238   59.7941   65.0003 C   0  0  0  0  0  0  0  0  0  0  0  0
  -44.9284   58.7641   65.0977 C   0  0  0  0  0  0  0  0  0  0  0  0
  -46.2371   59.2980   65.6306 C   0  0  0  0  0  0  0  0  0  0  0  0
  -47.1530   58.2332   66.1782 C   0  0  0  0  0  0  0  0  0  0  0  0
  -48.1118   57.7121   65.1416 C   0  0  0  0  0  0  0  0  0  0  0  0
  -48.6337   58.7342   64.1756 C   0  0  0  0  0  0  0  0  0  0  0  0
  -49.7158   59.5606   64.7298 C   0  0  0  0  0  0  0  0  0  0  0  0
  -50.7800   60.0211   64.1102 C   0  0  0  0  0  0  0  0  0  0  0  0
  -51.1776   59.8077   62.6957 C   0  0  0  0  0  0  0  0  0  0  0  0
  -50.1661   60.2516   61.6588 C   0  0  0  0  0  0  0  0  0  0  0  0
  -49.7766   59.1461   60.7163 C   0  0  0  0  0  0  0  0  0  0  0  0
  -50.5081   57.8464   60.9339 C   0  0  0  0  0  0  0  0  0  0  0  0
  -49.9070   56.7020   60.1480 C   0  0  0  0  0  0  0  0  0  0  0  0
  -49.2185   57.1021   58.8729 C   0  0  0  0  0  0  0  0  0  0  0  0
  -47.9367   56.4017   58.6598 C   0  0  0  0  0  0  0  0  0  0  0  0
  -47.0470   57.0909   57.7273 C   0  0  0  0  0  0  0  0  0  0  0  0
  -41.6693   60.2875   63.4858 O   0  0  0  0  0  0  0  0  0  0  0  0
  -40.9066   61.3561   62.8819 C   0  0  0  0  0  0  0  0  0  0  0  0
  -40.2088   60.7749   61.6738 C   0  0  0  0  0  0  0  0  0  0  0  0
  -40.7408   61.3644   60.4874 O   0  0  0  0  0  0  0  0  0  0  0  0
  -40.5515   62.3157   60.4861 H   0  0  0  0  0  0  0  0  0  0  0  0
  -38.7091   60.9460   61.6586 C   0  0  0  0  0  0  0  0  0  0  0  0
  -38.1214   59.7875   61.0328 O   0  0  0  0  0  0  0  0  0  0  0  0
  -37.3721   58.7062   61.9263 P   0  0  0  0  0  0  0  0  0  0  0  0
  -38.4136   57.8990   62.5934 O   0  0  0  0  0  0  0  0  0  0  0  0
  -36.3916   58.0340   61.0513 O   0  0  0  0  0  0  0  0  0  0  0  0
  -36.8596   57.5531   60.3508 H   0  0  0  0  0  0  0  0  0  0  0  0
  -36.5521   59.4726   63.0477 O   0  0  0  0  0  0  0  0  0  0  0  0
  -35.5996   58.7482   63.8610 C   0  0  0  0  0  0  0  0  0  0  0  0
  -34.3360   59.5782   63.8571 C   0  0  0  0  0  0  0  0  0  0  0  0
  -33.0487   58.8362   63.5576 N   0  0  0  0  0  0  0  0  0  0  0  0
  -31.9945   59.7680   63.0525 C   0  0  0  0  0  0  0  0  0  0  0  0
  -33.3031   57.7934   62.5167 C   0  0  0  0  0  0  0  0  0  0  0  0
  -32.5478   58.1775   64.8045 C   0  0  0  0  0  0  0  0  0  0  0  0
 34 33  1  0  0  0
 34 35  1  0  0  0
 34 36  1  0  0  0
 34 37  1  0  0  0
 22 23  1  0  0  0
 22 25  1  0  0  0
 22 21  1  0  0  0
 23 24  1  0  0  0
 27 26  1  0  0  0
 27 28  2  0  0  0
 27 31  1  0  0  0
 27 29  1  0  0  0
 25 26  1  0  0  0
 32 33  1  0  0  0
 32 31  1  0  0  0
 29 30  1  0  0  0
 20 21  1  0  0  0
 20  2  1  0  0  0
  1  2  2  0  0  0
  2  3  1  0  0  0
  3  4  1  0  0  0
  4  5  1  0  0  0
  5  6  1  0  0  0
  6  7  1  0  0  0
  7  8  1  0  0  0
  8  9  1  0  0  0
  9 10  1  0  0  0
 10 11  2  0  0  0
 11 12  1  0  0  0
 12 13  1  0  0  0
 13 14  1  0  0  0
 14 15  1  0  0  0
 15 16  1  0  0  0
 16 17  1  0  0  0
 17 18  1  0  0  0
 18 19  1  0  0  0
M  CHG 1  28  -1
M  END
> <minimizedAffinity>
-7.99595

> <CNNscore>
0.6883454919

> <CNNaffinity>
6.5134544373

> <CNN_VS>
4.4835071564

> <CNNaffinity_variance>
0.7318115830

$$$$
/media/chris/experiments/cd1a-new-docking/inputs/ligands/4x6c_ligand.pdb


 37 36  0  0  0  0  0  0  0  0999 V2000
  -41.8929   58.1747   66.1278 O   0  0  0  0  0  0  0  0  0  0  0  0
  -42.3351   59.1572   65.6158 C   0  0  0  0  0  0  0  0  0  0  0  0
  -43.7574   59.3231   65.1909 C   0  0  0  0  0  0  0  0  0  0  0  0
  -44.5548   58.0357   65.2804 C   0  0  0  0  0  0  0  0  0  0  0  0
  -45.8603   58.2019   66.0279 C   0  0  0  0  0  0  0  0  0  0  0  0
  -46.5269   59.5433   65.8330 C   0  0  0  0  0  0  0  0  0  0  0  0
  -47.6935   59.5122   64.8789 C   0  0  0  0  0  0  0  0  0  0  0  0
  -48.3481   58.1583   64.8163 C   0  0  0  0  0  0  0  0  0  0  0  0
  -49.8290   58.1475   65.0552 C   0  0  0  0  0  0  0  0  0  0  0  0
  -50.4167   59.4928   65.1320 C   0  0  0  0  0  0  0  0  0  0  0  0
  -50.9523   60.1980   64.1602 C   0  0  0  0  0  0  0  0  0  0  0  0
  -51.1235   59.8105   62.7373 C   0  0  0  0  0  0  0  0  0  0  0  0
  -49.9427   60.1025   61.8340 C   0  0  0  0  0  0  0  0  0  0  0  0
  -49.7138   59.0251   60.8098 C   0  0  0  0  0  0  0  0  0  0  0  0
  -49.6309   57.6293   61.3724 C   0  0  0  0  0  0  0  0  0  0  0  0
  -49.4040   56.5837   60.3029 C   0  0  0  0  0  0  0  0  0  0  0  0
  -48.9618   57.1248   58.9718 C   0  0  0  0  0  0  0  0  0  0  0  0
  -47.7186   56.5027   58.4753 C   0  0  0  0  0  0  0  0  0  0  0  0
  -47.0949   57.2452   57.3817 C   0  0  0  0  0  0  0  0  0  0  0  0
  -41.6106   60.2430   65.3456 O   0  0  0  0  0  0  0  0  0  0  0  0
  -40.3059   60.0455   64.7568 C   0  0  0  0  0  0  0  0  0  0  0  0
  -39.4894   61.2799   65.0636 C   0  0  0  0  0  0  0  0  0  0  0  0
  -40.2360   62.1434   65.9211 O   0  0  0  0  0  0  0  0  0  0  0  0
  -40.3955   61.6988   66.7682 H   0  0  0  0  0  0  0  0  0  0  0  0
  -38.1487   61.0159   65.7049 C   0  0  0  0  0  0  0  0  0  0  0  0
  -37.4847   62.2782   65.9163 O   0  0  0  0  0  0  0  0  0  0  0  0
  -36.0623   62.5391   65.2543 P   0  0  0  0  0  0  0  0  0  0  0  0
  -36.2823   62.6917   63.8019 O   0  0  0  0  0  0  0  0  0  0  0  0
  -35.4368   63.6440   66.0071 O   0  0  0  0  0  0  0  0  0  0  0  0
  -35.9605   64.4522   65.8902 H   0  0  0  0  0  0  0  0  0  0  0  0
  -35.1661   61.2499   65.4820 O   0  0  0  0  0  0  0  0  0  0  0  0
  -34.7632   60.4470   64.3478 C   0  0  0  0  0  0  0  0  0  0  0  0
  -34.9941   59.0095   64.7551 C   0  0  0  0  0  0  0  0  0  0  0  0
  -35.9870   58.2278   63.9179 N   0  0  0  0  0  0  0  0  0  0  0  0
  -37.0239   57.5793   64.7775 C   0  0  0  0  0  0  0  0  0  0  0  0
  -35.2674   57.1640   63.1524 C   0  0  0  0  0  0  0  0  0  0  0  0
  -36.6698   59.1508   62.9581 C   0  0  0  0  0  0  0  0  0  0  0  0
 34 33  1  0  0  0
 34 35  1  0  0  0
 34 36  1  0  0  0
 34 37  1  0  0  0
 22 23  1  0  0  0
 22 25  1  0  0  0
 22 21  1  0  0  0
 23 24  1  0  0  0
 27 26  1  0  0  0
 27 28  2  0  0  0
 27 31  1  0  0  0
 27 29  1  0  0  0
 25 26  1  0  0  0
 32 33  1  0  0  0
 32 31  1  0  0  0
 29 30  1  0  0  0
 20 21  1  0  0  0
 20  2  1  0  0  0
  1  2  2  0  0  0
  2  3  1  0  0  0
  3  4  1  0  0  0
  4  5  1  0  0  0
  5  6  1  0  0  0
  6  7  1  0  0  0
  7  8  1  0  0  0
  8  9  1  0  0  0
  9 10  1  0  0  0
 10 11  2  0  0  0
 11 12  1  0  0  0
 12 13  1  0  0  0
 13 14  1  0  0  0
 14 15  1  0  0  0
 15 16  1  0  0  0
 16 17  1  0  0  0
 17 18  1  0  0  0
 18 19  1  0  0  0
M  CHG 1  28  -1
M  END
> <minimizedAffinity>
-8.15525

> <CNNscore>
0.6851746440

> <CNNaffinity>
6.6109032631

> <CNN_VS>
4.5296235085

> <CNNaffinity_variance>
0.3114027083

$$$$
/media/chris/experiments/cd1a-new-docking/inputs/ligands/4x6c_ligand.pdb


 37 36  0  0  0  0  0  0  0  0999 V2000
  -41.8839   58.2075   65.9997 O   0  0  0  0  0  0  0  0  0  0  0  0
  -42.6454   58.9025   65.3994 C   0  0  0  0  0  0  0  0  0  0  0  0
  -44.0265   58.4972   65.0003 C   0  0  0  0  0  0  0  0  0  0  0  0
  -44.4995   57.2390   65.7036 C   0  0  0  0  0  0  0  0  0  0  0  0
  -45.9814   57.2572   66.0103 C   0  0  0  0  0  0  0  0  0  0  0  0
  -46.4814   58.5514   66.6076 C   0  0  0  0  0  0  0  0  0  0  0  0
  -47.5000   59.2638   65.7549 C   0  0  0  0  0  0  0  0  0  0  0  0
  -48.2676   58.3200   64.8686 C   0  0  0  0  0  0  0  0  0  0  0  0
  -49.7254   58.1754   65.1916 C   0  0  0  0  0  0  0  0  0  0  0  0
  -50.4160   59.4626   65.3570 C   0  0  0  0  0  0  0  0  0  0  0  0
  -51.0170   60.1821   64.4352 C   0  0  0  0  0  0  0  0  0  0  0  0
  -51.1742   59.8713   62.9919 C   0  0  0  0  0  0  0  0  0  0  0  0
  -50.0378   60.3246   62.0985 C   0  0  0  0  0  0  0  0  0  0  0  0
  -49.6787   59.3054   61.0523 C   0  0  0  0  0  0  0  0  0  0  0  0
  -49.8065   57.8719   61.5002 C   0  0  0  0  0  0  0  0  0  0  0  0
  -50.2759   56.9558   60.3916 C   0  0  0  0  0  0  0  0  0  0  0  0
  -49.9206   57.4086   59.0028 C   0  0  0  0  0  0  0  0  0  0  0  0
  -48.5826   56.9604   58.5695 C   0  0  0  0  0  0  0  0  0  0  0  0
  -48.2132   55.6465   59.0925 C   0  0  0  0  0  0  0  0  0  0  0  0
  -42.3591   60.1400   64.9951 O   0  0  0  0  0  0  0  0  0  0  0  0
  -41.5268   60.9481   65.8567 C   0  0  0  0  0  0  0  0  0  0  0  0
  -40.1973   61.1166   65.1580 C   0  0  0  0  0  0  0  0  0  0  0  0
  -39.3494   60.0129   65.4757 O   0  0  0  0  0  0  0  0  0  0  0  0
  -39.7413   59.1948   65.1324 H   0  0  0  0  0  0  0  0  0  0  0  0
  -40.2761   61.2389   63.6556 C   0  0  0  0  0  0  0  0  0  0  0  0
  -39.4985   60.1767   63.0673 O   0  0  0  0  0  0  0  0  0  0  0  0
  -38.8127   60.3966   61.6494 P   0  0  0  0  0  0  0  0  0  0  0  0
  -39.8711   60.8430   60.7211 O   0  0  0  0  0  0  0  0  0  0  0  0
  -37.6388   61.2634   61.8721 O   0  0  0  0  0  0  0  0  0  0  0  0
  -37.9336   62.1325   62.1864 H   0  0  0  0  0  0  0  0  0  0  0  0
  -38.2710   58.9956   61.1386 O   0  0  0  0  0  0  0  0  0  0  0  0
  -36.9529   58.5488   61.5342 C   0  0  0  0  0  0  0  0  0  0  0  0
  -37.1317   57.8628   62.8695 C   0  0  0  0  0  0  0  0  0  0  0  0
  -35.9811   57.9922   63.8478 N   0  0  0  0  0  0  0  0  0  0  0  0
  -36.0697   56.9582   64.9238 C   0  0  0  0  0  0  0  0  0  0  0  0
  -36.0138   59.3457   64.4822 C   0  0  0  0  0  0  0  0  0  0  0  0
  -34.6840   57.8181   63.1222 C   0  0  0  0  0  0  0  0  0  0  0  0
 34 33  1  0  0  0
 34 35  1  0  0  0
 34 36  1  0  0  0
 34 37  1  0  0  0
 22 23  1  0  0  0
 22 25  1  0  0  0
 22 21  1  0  0  0
 23 24  1  0  0  0
 27 26  1  0  0  0
 27 28  2  0  0  0
 27 31  1  0  0  0
 27 29  1  0  0  0
 25 26  1  0  0  0
 32 33  1  0  0  0
 32 31  1  0  0  0
 29 30  1  0  0  0
 20 21  1  0  0  0
 20  2  1  0  0  0
  1  2  2  0  0  0
  2  3  1  0  0  0
  3  4  1  0  0  0
  4  5  1  0  0  0
  5  6  1  0  0  0
  6  7  1  0  0  0
  7  8  1  0  0  0
  8  9  1  0  0  0
  9 10  1  0  0  0
 10 11  2  0  0  0
 11 12  1  0  0  0
 12 13  1  0  0  0
 13 14  1  0  0  0
 14 15  1  0  0  0
 15 16  1  0  0  0
 16 17  1  0  0  0
 17 18  1  0  0  0
 18 19  1  0  0  0
M  CHG 1  28  -1
M  END
> <minimizedAffinity>
-8.24164

> <CNNscore>
0.6601815224

> <CNNaffinity>
6.7074584961

> <CNN_VS>
4.4281401634

> <CNNaffinity_variance>
0.3897501826

$$$$
/media/chris/experiments/cd1a-new-docking/inputs/ligands/4x6c_ligand.pdb


 37 36  0  0  0  0  0  0  0  0999 V2000
  -41.7952   59.6289   67.3875 O   0  0  0  0  0  0  0  0  0  0  0  0
  -42.0697   60.3003   66.4404 C   0  0  0  0  0  0  0  0  0  0  0  0
  -43.1695   59.9952   65.4769 C   0  0  0  0  0  0  0  0  0  0  0  0
  -43.5044   58.5170   65.4112 C   0  0  0  0  0  0  0  0  0  0  0  0
  -44.7156   58.2249   64.5521 C   0  0  0  0  0  0  0  0  0  0  0  0
  -45.7724   57.3817   65.2258 C   0  0  0  0  0  0  0  0  0  0  0  0
  -46.9367   58.1754   65.7613 C   0  0  0  0  0  0  0  0  0  0  0  0
  -47.0967   59.5004   65.0655 C   0  0  0  0  0  0  0  0  0  0  0  0
  -48.2383   60.3465   65.5462 C   0  0  0  0  0  0  0  0  0  0  0  0
  -49.5143   59.6195   65.6139 C   0  0  0  0  0  0  0  0  0  0  0  0
  -50.5272   59.6845   64.7783 C   0  0  0  0  0  0  0  0  0  0  0  0
  -50.6375   60.4915   63.5370 C   0  0  0  0  0  0  0  0  0  0  0  0
  -50.5073   59.7177   62.2410 C   0  0  0  0  0  0  0  0  0  0  0  0
  -50.2900   58.2459   62.4620 C   0  0  0  0  0  0  0  0  0  0  0  0
  -50.5570   57.3822   61.2561 C   0  0  0  0  0  0  0  0  0  0  0  0
  -50.1042   58.0290   59.9657 C   0  0  0  0  0  0  0  0  0  0  0  0
  -49.4361   57.0992   58.9915 C   0  0  0  0  0  0  0  0  0  0  0  0
  -48.6888   56.0085   59.6478 C   0  0  0  0  0  0  0  0  0  0  0  0
  -47.5130   55.5759   58.8951 C   0  0  0  0  0  0  0  0  0  0  0  0
  -41.4205   61.4164   66.1093 O   0  0  0  0  0  0  0  0  0  0  0  0
  -40.9694   61.5459   64.7426 C   0  0  0  0  0  0  0  0  0  0  0  0
  -39.4662   61.3898   64.7551 C   0  0  0  0  0  0  0  0  0  0  0  0
  -38.9063   62.2521   65.7456 O   0  0  0  0  0  0  0  0  0  0  0  0
  -39.2203   61.9833   66.6230 H   0  0  0  0  0  0  0  0  0  0  0  0
  -38.9717   59.9868   65.0113 C   0  0  0  0  0  0  0  0  0  0  0  0
  -37.8344   59.7386   64.1604 O   0  0  0  0  0  0  0  0  0  0  0  0
  -37.7832   58.4132   63.2830 P   0  0  0  0  0  0  0  0  0  0  0  0
  -38.7859   57.4845   63.8427 O   0  0  0  0  0  0  0  0  0  0  0  0
  -37.8976   58.8301   61.8717 O   0  0  0  0  0  0  0  0  0  0  0  0
  -38.7651   59.2385   61.7245 H   0  0  0  0  0  0  0  0  0  0  0  0
  -36.3508   57.7551   63.4630 O   0  0  0  0  0  0  0  0  0  0  0  0
  -35.3714   58.3914   64.3172 C   0  0  0  0  0  0  0  0  0  0  0  0
  -34.5044   59.2264   63.4026 C   0  0  0  0  0  0  0  0  0  0  0  0
  -33.0206   58.9169   63.4203 N   0  0  0  0  0  0  0  0  0  0  0  0
  -32.6560   57.9628   62.3288 C   0  0  0  0  0  0  0  0  0  0  0  0
  -32.6533   58.3035   64.7334 C   0  0  0  0  0  0  0  0  0  0  0  0
  -32.2424   60.1810   63.2309 C   0  0  0  0  0  0  0  0  0  0  0  0
 34 33  1  0  0  0
 34 35  1  0  0  0
 34 36  1  0  0  0
 34 37  1  0  0  0
 22 23  1  0  0  0
 22 25  1  0  0  0
 22 21  1  0  0  0
 23 24  1  0  0  0
 27 26  1  0  0  0
 27 28  2  0  0  0
 27 31  1  0  0  0
 27 29  1  0  0  0
 25 26  1  0  0  0
 32 33  1  0  0  0
 32 31  1  0  0  0
 29 30  1  0  0  0
 20 21  1  0  0  0
 20  2  1  0  0  0
  1  2  2  0  0  0
  2  3  1  0  0  0
  3  4  1  0  0  0
  4  5  1  0  0  0
  5  6  1  0  0  0
  6  7  1  0  0  0
  7  8  1  0  0  0
  8  9  1  0  0  0
  9 10  1  0  0  0
 10 11  2  0  0  0
 11 12  1  0  0  0
 12 13  1  0  0  0
 13 14  1  0  0  0
 14 15  1  0  0  0
 15 16  1  0  0  0
 16 17  1  0  0  0
 17 18  1  0  0  0
 18 19  1  0  0  0
M  CHG 1  28  -1
M  END
> <minimizedAffinity>
-7.69480

> <CNNscore>
0.6222037077

> <CNNaffinity>
6.4542098045

> <CNN_VS>
4.0158333778

> <CNNaffinity_variance>
0.5299099684

$$$$
/media/chris/experiments/cd1a-new-docking/inputs/ligands/4x6c_ligand.pdb


 37 36  0  0  0  0  0  0  0  0999 V2000
  -42.0344   60.8614   66.7982 O   0  0  0  0  0  0  0  0  0  0  0  0
  -41.9326   60.3993   65.7031 C   0  0  0  0  0  0  0  0  0  0  0  0
  -43.0845   59.9623   64.8585 C   0  0  0  0  0  0  0  0  0  0  0  0
  -44.0583   59.0692   65.6039 C   0  0  0  0  0  0  0  0  0  0  0  0
  -44.3803   57.7943   64.8547 C   0  0  0  0  0  0  0  0  0  0  0  0
  -45.4073   56.9147   65.5281 C   0  0  0  0  0  0  0  0  0  0  0  0
  -46.6193   57.6614   66.0239 C   0  0  0  0  0  0  0  0  0  0  0  0
  -47.8540   57.3488   65.2219 C   0  0  0  0  0  0  0  0  0  0  0  0
  -48.1183   58.2644   64.0634 C   0  0  0  0  0  0  0  0  0  0  0  0
  -49.1825   59.2440   64.3260 C   0  0  0  0  0  0  0  0  0  0  0  0
  -50.2659   59.4708   63.6164 C   0  0  0  0  0  0  0  0  0  0  0  0
  -50.7079   58.7814   62.3780 C   0  0  0  0  0  0  0  0  0  0  0  0
  -49.9111   59.1044   61.1306 C   0  0  0  0  0  0  0  0  0  0  0  0
  -49.3754   57.8756   60.4485 C   0  0  0  0  0  0  0  0  0  0  0  0
  -50.1407   57.4531   59.2207 C   0  0  0  0  0  0  0  0  0  0  0  0
  -49.2448   56.8766   58.1467 C   0  0  0  0  0  0  0  0  0  0  0  0
  -47.7799   57.1659   58.3212 C   0  0  0  0  0  0  0  0  0  0  0  0
  -46.9959   56.9615   57.0874 C   0  0  0  0  0  0  0  0  0  0  0  0
  -46.9449   55.5657   56.6568 C   0  0  0  0  0  0  0  0  0  0  0  0
  -40.7673   60.2029   65.0863 O   0  0  0  0  0  0  0  0  0  0  0  0
  -40.0487   61.3704   64.6294 C   0  0  0  0  0  0  0  0  0  0  0  0
  -38.5774   61.0257   64.6602 C   0  0  0  0  0  0  0  0  0  0  0  0
  -38.0823   61.1711   65.9913 O   0  0  0  0  0  0  0  0  0  0  0  0
  -38.5281   60.5361   66.5733 H   0  0  0  0  0  0  0  0  0  0  0  0
  -38.2362   59.6378   64.1747 C   0  0  0  0  0  0  0  0  0  0  0  0
  -36.9579   59.6859   63.5093 O   0  0  0  0  0  0  0  0  0  0  0  0
  -35.8930   58.5332   63.7677 P   0  0  0  0  0  0  0  0  0  0  0  0
  -36.2995   57.8379   65.0056 O   0  0  0  0  0  0  0  0  0  0  0  0
  -35.7837   57.7633   62.5130 O   0  0  0  0  0  0  0  0  0  0  0  0
  -36.6320   57.3331   62.3227 H   0  0  0  0  0  0  0  0  0  0  0  0
  -34.4822   59.2112   64.0264 O   0  0  0  0  0  0  0  0  0  0  0  0
  -34.3224   60.1372   65.1267 C   0  0  0  0  0  0  0  0  0  0  0  0
  -33.9118   61.4525   64.5047 C   0  0  0  0  0  0  0  0  0  0  0  0
  -34.3863   62.7053   65.2138 N   0  0  0  0  0  0  0  0  0  0  0  0
  -33.3018   63.7322   65.2773 C   0  0  0  0  0  0  0  0  0  0  0  0
  -34.8026   62.3633   66.6085 C   0  0  0  0  0  0  0  0  0  0  0  0
  -35.5531   63.2862   64.4786 C   0  0  0  0  0  0  0  0  0  0  0  0
 34 33  1  0  0  0
 34 35  1  0  0  0
 34 36  1  0  0  0
 34 37  1  0  0  0
 22 23  1  0  0  0
 22 25  1  0  0  0
 22 21  1  0  0  0
 23 24  1  0  0  0
 27 26  1  0  0  0
 27 28  2  0  0  0
 27 31  1  0  0  0
 27 29  1  0  0  0
 25 26  1  0  0  0
 32 33  1  0  0  0
 32 31  1  0  0  0
 29 30  1  0  0  0
 20 21  1  0  0  0
 20  2  1  0  0  0
  1  2  2  0  0  0
  2  3  1  0  0  0
  3  4  1  0  0  0
  4  5  1  0  0  0
  5  6  1  0  0  0
  6  7  1  0  0  0
  7  8  1  0  0  0
  8  9  1  0  0  0
  9 10  1  0  0  0
 10 11  2  0  0  0
 11 12  1  0  0  0
 12 13  1  0  0  0
 13 14  1  0  0  0
 14 15  1  0  0  0
 15 16  1  0  0  0
 16 17  1  0  0  0
 17 18  1  0  0  0
 18 19  1  0  0  0
M  CHG 1  28  -1
M  END
> <minimizedAffinity>
-7.46034

> <CNNscore>
0.5925676823

> <CNNaffinity>
6.4080071449

> <CNN_VS>
3.7971780300

> <CNNaffinity_variance>
0.6785590649

$$$$
