/media/chris/experiments/cd1a-new-docking/inputs/ligands/4x6c_ligand.pdb


 37 36  0  0  0  0  0  0  0  0999 V2000
  -41.8521   58.0706   65.6310 O   0  0  0  0  0  0  0  0  0  0  0  0
  -42.8086   58.7611   65.4533 C   0  0  0  0  0  0  0  0  0  0  0  0
  -44.1271   58.2683   64.9537 C   0  0  0  0  0  0  0  0  0  0  0  0
  -44.6776   57.1177   65.7751 C   0  0  0  0  0  0  0  0  0  0  0  0
  -46.1393   57.2914   66.1269 C   0  0  0  0  0  0  0  0  0  0  0  0
  -46.4791   58.6246   66.7506 C   0  0  0  0  0  0  0  0  0  0  0  0
  -47.6032   59.3530   66.0592 C   0  0  0  0  0  0  0  0  0  0  0  0
  -48.2532   58.5201   64.9871 C   0  0  0  0  0  0  0  0  0  0  0  0
  -49.7342   58.3290   65.1295 C   0  0  0  0  0  0  0  0  0  0  0  0
  -50.4793   59.5931   65.2175 C   0  0  0  0  0  0  0  0  0  0  0  0
  -51.0646   60.2564   64.2449 C   0  0  0  0  0  0  0  0  0  0  0  0
  -51.1450   59.8898   62.8083 C   0  0  0  0  0  0  0  0  0  0  0  0
  -49.9026   60.1778   61.9903 C   0  0  0  0  0  0  0  0  0  0  0  0
  -49.7458   59.2428   60.8228 C   0  0  0  0  0  0  0  0  0  0  0  0
  -49.5477   57.7961   61.1970 C   0  0  0  0  0  0  0  0  0  0  0  0
  -49.8852   56.8510   60.0650 C   0  0  0  0  0  0  0  0  0  0  0  0
  -48.9137   55.7200   59.8733 C   0  0  0  0  0  0  0  0  0  0  0  0
  -47.6302   56.1497   59.2838 C   0  0  0  0  0  0  0  0  0  0  0  0
  -47.3797   55.5803   57.9612 C   0  0  0  0  0  0  0  0  0  0  0  0
  -42.8248   60.0760   65.6714 O   0  0  0  0  0  0  0  0  0  0  0  0
  -41.7376   60.6390   66.4389 C   0  0  0  0  0  0  0  0  0  0  0  0
  -40.8892   61.4440   65.4815 C   0  0  0  0  0  0  0  0  0  0  0  0
  -40.6521   62.7404   66.0303 O   0  0  0  0  0  0  0  0  0  0  0  0
  -40.1406   62.6558   66.8502 H   0  0  0  0  0  0  0  0  0  0  0  0
  -39.5579   60.8246   65.1320 C   0  0  0  0  0  0  0  0  0  0  0  0
  -38.5387   61.4365   65.9478 O   0  0  0  0  0  0  0  0  0  0  0  0
  -37.1054   61.7323   65.3251 P   0  0  0  0  0  0  0  0  0  0  0  0
  -37.3259   62.2738   63.9689 O   0  0  0  0  0  0  0  0  0  0  0  0
  -36.3695   62.5450   66.3134 O   0  0  0  0  0  0  0  0  0  0  0  0
  -36.8154   63.3991   66.4260 H   0  0  0  0  0  0  0  0  0  0  0  0
  -36.3331   60.3536   65.1833 O   0  0  0  0  0  0  0  0  0  0  0  0
  -35.8948   59.9079   63.8784 C   0  0  0  0  0  0  0  0  0  0  0  0
  -36.2740   58.4471   63.7909 C   0  0  0  0  0  0  0  0  0  0  0  0
  -37.4420   58.1118   62.8847 N   0  0  0  0  0  0  0  0  0  0  0  0
  -37.0873   57.0162   61.9314 C   0  0  0  0  0  0  0  0  0  0  0  0
  -37.8284   59.3231   62.0980 C   0  0  0  0  0  0  0  0  0  0  0  0
  -38.6072   57.6678   63.7120 C   0  0  0  0  0  0  0  0  0  0  0  0
 34 33  1  0  0  0
 34 35  1  0  0  0
 34 36  1  0  0  0
 34 37  1  0  0  0
 22 23  1  0  0  0
 22 25  1  0  0  0
 22 21  1  0  0  0
 23 24  1  0  0  0
 27 26  1  0  0  0
 27 28  2  0  0  0
 27 31  1  0  0  0
 27 29  1  0  0  0
 25 26  1  0  0  0
 32 33  1  0  0  0
 32 31  1  0  0  0
 29 30  1  0  0  0
 20 21  1  0  0  0
 20  2  1  0  0  0
  1  2  2  0  0  0
  2  3  1  0  0  0
  3  4  1  0  0  0
  4  5  1  0  0  0
  5  6  1  0  0  0
  6  7  1  0  0  0
  7  8  1  0  0  0
  8  9  1  0  0  0
  9 10  1  0  0  0
 10 11  2  0  0  0
 11 12  1  0  0  0
 12 13  1  0  0  0
 13 14  1  0  0  0
 14 15  1  0  0  0
 15 16  1  0  0  0
 16 17  1  0  0  0
 17 18  1  0  0  0
 18 19  1  0  0  0
M  CHG 1  28  -1
M  END
> <minimizedAffinity>
-8.33625

> <CNNscore>
0.9012803435

> <CNNaffinity>
7.2005858421

> <CNN_VS>
6.4897465706

> <CNNaffinity_variance>
0.2863629162

$$$$
/media/chris/experiments/cd1a-new-docking/inputs/ligands/4x6c_ligand.pdb


 37 36  0  0  0  0  0  0  0  0999 V2000
  -42.2533   57.7565   65.8513 O   0  0  0  0  0  0  0  0  0  0  0  0
  -42.9728   58.6642   65.5661 C   0  0  0  0  0  0  0  0  0  0  0  0
  -44.3874   58.5121   65.1112 C   0  0  0  0  0  0  0  0  0  0  0  0
  -45.3126   59.5616   65.6976 C   0  0  0  0  0  0  0  0  0  0  0  0
  -46.6079   58.9792   66.2205 C   0  0  0  0  0  0  0  0  0  0  0  0
  -46.9886   57.6510   65.6101 C   0  0  0  0  0  0  0  0  0  0  0  0
  -48.0853   57.7445   64.5802 C   0  0  0  0  0  0  0  0  0  0  0  0
  -49.4361   57.9829   65.2001 C   0  0  0  0  0  0  0  0  0  0  0  0
  -49.9863   59.3682   65.0319 C   0  0  0  0  0  0  0  0  0  0  0  0
  -49.4929   60.0489   63.8260 C   0  0  0  0  0  0  0  0  0  0  0  0
  -49.9593   59.9616   62.5999 C   0  0  0  0  0  0  0  0  0  0  0  0
  -51.1197   59.1704   62.1180 C   0  0  0  0  0  0  0  0  0  0  0  0
  -50.8332   57.7164   61.8029 C   0  0  0  0  0  0  0  0  0  0  0  0
  -50.4948   57.4913   60.3548 C   0  0  0  0  0  0  0  0  0  0  0  0
  -49.0221   57.3475   60.0675 C   0  0  0  0  0  0  0  0  0  0  0  0
  -48.7482   56.8716   58.6579 C   0  0  0  0  0  0  0  0  0  0  0  0
  -47.7471   55.7554   58.5496 C   0  0  0  0  0  0  0  0  0  0  0  0
  -47.4799   55.3472   57.1563 C   0  0  0  0  0  0  0  0  0  0  0  0
  -47.7966   56.3847   56.1768 C   0  0  0  0  0  0  0  0  0  0  0  0
  -42.6040   59.9444   65.6083 O   0  0  0  0  0  0  0  0  0  0  0  0
  -41.4763   60.2872   66.4442 C   0  0  0  0  0  0  0  0  0  0  0  0
  -40.5088   61.0685   65.5853 C   0  0  0  0  0  0  0  0  0  0  0  0
  -40.4892   62.4315   66.0097 O   0  0  0  0  0  0  0  0  0  0  0  0
  -40.1558   62.4821   66.9192 H   0  0  0  0  0  0  0  0  0  0  0  0
  -39.0914   60.5496   65.5859 C   0  0  0  0  0  0  0  0  0  0  0  0
  -38.2234   61.5862   66.0869 O   0  0  0  0  0  0  0  0  0  0  0  0
  -36.8713   61.9192   65.3186 P   0  0  0  0  0  0  0  0  0  0  0  0
  -37.2216   62.1373   63.9006 O   0  0  0  0  0  0  0  0  0  0  0  0
  -36.2080   63.0024   66.0706 O   0  0  0  0  0  0  0  0  0  0  0  0
  -36.7588   63.8004   66.0415 H   0  0  0  0  0  0  0  0  0  0  0  0
  -35.9286   60.6457   65.4008 O   0  0  0  0  0  0  0  0  0  0  0  0
  -34.9111   60.4402   64.3928 C   0  0  0  0  0  0  0  0  0  0  0  0
  -34.5393   58.9770   64.4722 C   0  0  0  0  0  0  0  0  0  0  0  0
  -35.3950   58.0239   63.6616 N   0  0  0  0  0  0  0  0  0  0  0  0
  -36.4142   58.7654   62.8578 C   0  0  0  0  0  0  0  0  0  0  0  0
  -36.1045   57.0829   64.5817 C   0  0  0  0  0  0  0  0  0  0  0  0
  -34.5265   57.2408   62.7280 C   0  0  0  0  0  0  0  0  0  0  0  0
 34 33  1  0  0  0
 34 35  1  0  0  0
 34 36  1  0  0  0
 34 37  1  0  0  0
 22 23  1  0  0  0
 22 25  1  0  0  0
 22 21  1  0  0  0
 23 24  1  0  0  0
 27 26  1  0  0  0
 27 28  2  0  0  0
 27 31  1  0  0  0
 27 29  1  0  0  0
 25 26  1  0  0  0
 32 33  1  0  0  0
 32 31  1  0  0  0
 29 30  1  0  0  0
 20 21  1  0  0  0
 20  2  1  0  0  0
  1  2  2  0  0  0
  2  3  1  0  0  0
  3  4  1  0  0  0
  4  5  1  0  0  0
  5  6  1  0  0  0
  6  7  1  0  0  0
  7  8  1  0  0  0
  8  9  1  0  0  0
  9 10  1  0  0  0
 10 11  2  0  0  0
 11 12  1  0  0  0
 12 13  1  0  0  0
 13 14  1  0  0  0
 14 15  1  0  0  0
 15 16  1  0  0  0
 16 17  1  0  0  0
 17 18  1  0  0  0
 18 19  1  0  0  0
M  CHG 1  28  -1
M  END
> <minimizedAffinity>
-8.04599

> <CNNscore>
0.8932628036

> <CNNaffinity>
6.9547576904

> <CNN_VS>
6.2124261856

> <CNNaffinity_variance>
0.4807099700

$$$$
/media/chris/experiments/cd1a-new-docking/inputs/ligands/4x6c_ligand.pdb


 37 36  0  0  0  0  0  0  0  0999 V2000
  -42.5620   57.5959   65.6533 O   0  0  0  0  0  0  0  0  0  0  0  0
  -43.3726   58.4650   65.7557 C   0  0  0  0  0  0  0  0  0  0  0  0
  -44.8383   58.2860   65.5306 C   0  0  0  0  0  0  0  0  0  0  0  0
  -45.5446   59.5815   65.1781 C   0  0  0  0  0  0  0  0  0  0  0  0
  -47.0521   59.4697   65.2517 C   0  0  0  0  0  0  0  0  0  0  0  0
  -47.6133   58.1873   64.6840 C   0  0  0  0  0  0  0  0  0  0  0  0
  -49.0632   57.9528   65.0232 C   0  0  0  0  0  0  0  0  0  0  0  0
  -49.7948   59.2317   65.3307 C   0  0  0  0  0  0  0  0  0  0  0  0
  -50.7860   59.6717   64.2942 C   0  0  0  0  0  0  0  0  0  0  0  0
  -50.2166   60.5872   63.2948 C   0  0  0  0  0  0  0  0  0  0  0  0
  -49.6671   60.2833   62.1397 C   0  0  0  0  0  0  0  0  0  0  0  0
  -49.4991   58.9384   61.5337 C   0  0  0  0  0  0  0  0  0  0  0  0
  -50.7575   58.0992   61.4469 C   0  0  0  0  0  0  0  0  0  0  0  0
  -50.6413   56.9785   60.4506 C   0  0  0  0  0  0  0  0  0  0  0  0
  -49.4436   57.0676   59.5398 C   0  0  0  0  0  0  0  0  0  0  0  0
  -48.5965   55.8146   59.5686 C   0  0  0  0  0  0  0  0  0  0  0  0
  -47.4025   55.8362   58.6555 C   0  0  0  0  0  0  0  0  0  0  0  0
  -47.7083   55.3732   57.2875 C   0  0  0  0  0  0  0  0  0  0  0  0
  -47.3881   56.3584   56.2564 C   0  0  0  0  0  0  0  0  0  0  0  0
  -43.0742   59.7232   66.0794 O   0  0  0  0  0  0  0  0  0  0  0  0
  -41.6772   60.0913   66.1100 C   0  0  0  0  0  0  0  0  0  0  0  0
  -41.3689   60.7715   64.7959 C   0  0  0  0  0  0  0  0  0  0  0  0
  -40.8577   62.0807   65.0460 O   0  0  0  0  0  0  0  0  0  0  0  0
  -40.0181   62.0135   65.5271 H   0  0  0  0  0  0  0  0  0  0  0  0
  -40.3889   60.0389   63.9120 C   0  0  0  0  0  0  0  0  0  0  0  0
  -39.6112   61.0111   63.1849 O   0  0  0  0  0  0  0  0  0  0  0  0
  -38.9703   60.6168   61.7838 P   0  0  0  0  0  0  0  0  0  0  0  0
  -39.9663   60.9461   60.7442 O   0  0  0  0  0  0  0  0  0  0  0  0
  -37.6379   61.2499   61.7299 O   0  0  0  0  0  0  0  0  0  0  0  0
  -37.7379   62.2148   61.7386 H   0  0  0  0  0  0  0  0  0  0  0  0
  -38.7444   59.0465   61.7669 O   0  0  0  0  0  0  0  0  0  0  0  0
  -37.3988   58.5157   61.7346 C   0  0  0  0  0  0  0  0  0  0  0  0
  -37.2207   57.7598   63.0318 C   0  0  0  0  0  0  0  0  0  0  0  0
  -35.8264   57.7698   63.6263 N   0  0  0  0  0  0  0  0  0  0  0  0
  -35.7790   56.9925   64.9024 C   0  0  0  0  0  0  0  0  0  0  0  0
  -35.4134   59.1786   63.9094 C   0  0  0  0  0  0  0  0  0  0  0  0
  -34.8638   57.1583   62.6574 C   0  0  0  0  0  0  0  0  0  0  0  0
 34 33  1  0  0  0
 34 35  1  0  0  0
 34 36  1  0  0  0
 34 37  1  0  0  0
 22 23  1  0  0  0
 22 25  1  0  0  0
 22 21  1  0  0  0
 23 24  1  0  0  0
 27 26  1  0  0  0
 27 28  2  0  0  0
 27 31  1  0  0  0
 27 29  1  0  0  0
 25 26  1  0  0  0
 32 33  1  0  0  0
 32 31  1  0  0  0
 29 30  1  0  0  0
 20 21  1  0  0  0
 20  2  1  0  0  0
  1  2  2  0  0  0
  2  3  1  0  0  0
  3  4  1  0  0  0
  4  5  1  0  0  0
  5  6  1  0  0  0
  6  7  1  0  0  0
  7  8  1  0  0  0
  8  9  1  0  0  0
  9 10  1  0  0  0
 10 11  2  0  0  0
 11 12  1  0  0  0
 12 13  1  0  0  0
 13 14  1  0  0  0
 14 15  1  0  0  0
 15 16  1  0  0  0
 16 17  1  0  0  0
 17 18  1  0  0  0
 18 19  1  0  0  0
M  CHG 1  28  -1
M  END
> <minimizedAffinity>
-8.20657

> <CNNscore>
0.8320968747

> <CNNaffinity>
6.9555802345

> <CNN_VS>
5.7877163887

> <CNNaffinity_variance>
0.3813342452

$$$$
/media/chris/experiments/cd1a-new-docking/inputs/ligands/4x6c_ligand.pdb


 37 36  0  0  0  0  0  0  0  0999 V2000
  -41.6241   58.3199   65.7368 O   0  0  0  0  0  0  0  0  0  0  0  0
  -42.0111   59.4241   65.9690 C   0  0  0  0  0  0  0  0  0  0  0  0
  -43.3868   59.7557   66.4470 C   0  0  0  0  0  0  0  0  0  0  0  0
  -44.4587   59.4561   65.4161 C   0  0  0  0  0  0  0  0  0  0  0  0
  -45.1676   58.1428   65.6678 C   0  0  0  0  0  0  0  0  0  0  0  0
  -46.4288   57.9472   64.8599 C   0  0  0  0  0  0  0  0  0  0  0  0
  -47.4435   59.0479   65.0364 C   0  0  0  0  0  0  0  0  0  0  0  0
  -48.8108   58.6518   64.5474 C   0  0  0  0  0  0  0  0  0  0  0  0
  -49.9219   59.5919   64.9108 C   0  0  0  0  0  0  0  0  0  0  0  0
  -50.3368   60.4609   63.8001 C   0  0  0  0  0  0  0  0  0  0  0  0
  -50.8412   60.1048   62.6394 C   0  0  0  0  0  0  0  0  0  0  0  0
  -51.1441   58.7337   62.1569 C   0  0  0  0  0  0  0  0  0  0  0  0
  -50.0080   58.0247   61.4483 C   0  0  0  0  0  0  0  0  0  0  0  0
  -50.4718   57.2248   60.2622 C   0  0  0  0  0  0  0  0  0  0  0  0
  -49.9225   57.6876   58.9370 C   0  0  0  0  0  0  0  0  0  0  0  0
  -48.9312   56.7101   58.3450 C   0  0  0  0  0  0  0  0  0  0  0  0
  -47.6818   57.3340   57.7885 C   0  0  0  0  0  0  0  0  0  0  0  0
  -47.0445   56.5193   56.7354 C   0  0  0  0  0  0  0  0  0  0  0  0
  -47.4343   55.1112   56.7754 C   0  0  0  0  0  0  0  0  0  0  0  0
  -41.2632   60.5180   65.8237 O   0  0  0  0  0  0  0  0  0  0  0  0
  -40.5057   60.6512   64.6005 C   0  0  0  0  0  0  0  0  0  0  0  0
  -39.3561   61.5886   64.8906 C   0  0  0  0  0  0  0  0  0  0  0  0
  -39.6971   62.4343   65.9891 O   0  0  0  0  0  0  0  0  0  0  0  0
  -39.8229   61.8949   66.7855 H   0  0  0  0  0  0  0  0  0  0  0  0
  -38.0430   60.9121   65.2008 C   0  0  0  0  0  0  0  0  0  0  0  0
  -37.0516   61.9282   65.4528 O   0  0  0  0  0  0  0  0  0  0  0  0
  -36.1531   62.4645   64.2552 P   0  0  0  0  0  0  0  0  0  0  0  0
  -36.5654   61.7301   63.0421 O   0  0  0  0  0  0  0  0  0  0  0  0
  -36.2519   63.9372   64.2729 O   0  0  0  0  0  0  0  0  0  0  0  0
  -37.1663   64.2021   64.0869 H   0  0  0  0  0  0  0  0  0  0  0  0
  -34.6422   62.0921   64.5643 O   0  0  0  0  0  0  0  0  0  0  0  0
  -33.5758   62.8254   63.9173 C   0  0  0  0  0  0  0  0  0  0  0  0
  -33.0165   63.7567   64.9688 C   0  0  0  0  0  0  0  0  0  0  0  0
  -32.3424   65.0147   64.4584 N   0  0  0  0  0  0  0  0  0  0  0  0
  -33.1775   65.6897   63.4183 C   0  0  0  0  0  0  0  0  0  0  0  0
  -31.0198   64.6641   63.8557 C   0  0  0  0  0  0  0  0  0  0  0  0
  -32.1310   65.9662   65.5939 C   0  0  0  0  0  0  0  0  0  0  0  0
 34 33  1  0  0  0
 34 35  1  0  0  0
 34 36  1  0  0  0
 34 37  1  0  0  0
 22 23  1  0  0  0
 22 25  1  0  0  0
 22 21  1  0  0  0
 23 24  1  0  0  0
 27 26  1  0  0  0
 27 28  2  0  0  0
 27 31  1  0  0  0
 27 29  1  0  0  0
 25 26  1  0  0  0
 32 33  1  0  0  0
 32 31  1  0  0  0
 29 30  1  0  0  0
 20 21  1  0  0  0
 20  2  1  0  0  0
  1  2  2  0  0  0
  2  3  1  0  0  0
  3  4  1  0  0  0
  4  5  1  0  0  0
  5  6  1  0  0  0
  6  7  1  0  0  0
  7  8  1  0  0  0
  8  9  1  0  0  0
  9 10  1  0  0  0
 10 11  2  0  0  0
 11 12  1  0  0  0
 12 13  1  0  0  0
 13 14  1  0  0  0
 14 15  1  0  0  0
 15 16  1  0  0  0
 16 17  1  0  0  0
 17 18  1  0  0  0
 18 19  1  0  0  0
M  CHG 1  28  -1
M  END
> <minimizedAffinity>
-7.63353

> <CNNscore>
0.8272898793

> <CNNaffinity>
6.3991117477

> <CNN_VS>
5.2939205170

> <CNNaffinity_variance>
0.7288966775

$$$$
/media/chris/experiments/cd1a-new-docking/inputs/ligands/4x6c_ligand.pdb


 37 36  0  0  0  0  0  0  0  0999 V2000
  -42.0379   57.6671   65.9182 O   0  0  0  0  0  0  0  0  0  0  0  0
  -42.6717   58.6348   65.6273 C   0  0  0  0  0  0  0  0  0  0  0  0
  -44.0289   58.6019   65.0045 C   0  0  0  0  0  0  0  0  0  0  0  0
  -44.7018   57.2476   65.1255 C   0  0  0  0  0  0  0  0  0  0  0  0
  -46.0944   57.3319   65.7119 C   0  0  0  0  0  0  0  0  0  0  0  0
  -46.4114   58.6460   66.3860 C   0  0  0  0  0  0  0  0  0  0  0  0
  -47.7115   59.2637   65.9381 C   0  0  0  0  0  0  0  0  0  0  0  0
  -48.5854   58.2877   65.1970 C   0  0  0  0  0  0  0  0  0  0  0  0
  -50.0623   58.4895   65.3649 C   0  0  0  0  0  0  0  0  0  0  0  0
  -50.5206   59.8205   64.9413 C   0  0  0  0  0  0  0  0  0  0  0  0
  -50.9780   60.1812   63.7626 C   0  0  0  0  0  0  0  0  0  0  0  0
  -51.1722   59.3332   62.5594 C   0  0  0  0  0  0  0  0  0  0  0  0
  -49.9168   59.0216   61.7704 C   0  0  0  0  0  0  0  0  0  0  0  0
  -49.8089   57.5679   61.4002 C   0  0  0  0  0  0  0  0  0  0  0  0
  -50.3820   57.2177   60.0508 C   0  0  0  0  0  0  0  0  0  0  0  0
  -49.3380   57.2241   58.9560 C   0  0  0  0  0  0  0  0  0  0  0  0
  -48.1082   56.4107   59.2490 C   0  0  0  0  0  0  0  0  0  0  0  0
  -47.0321   56.6061   58.2575 C   0  0  0  0  0  0  0  0  0  0  0  0
  -47.4921   56.5032   56.8740 C   0  0  0  0  0  0  0  0  0  0  0  0
  -42.2457   59.8841   65.8140 O   0  0  0  0  0  0  0  0  0  0  0  0
  -40.8181   60.1035   65.8550 C   0  0  0  0  0  0  0  0  0  0  0  0
  -40.5322   61.3219   65.0075 C   0  0  0  0  0  0  0  0  0  0  0  0
  -39.5105   62.1034   65.6268 O   0  0  0  0  0  0  0  0  0  0  0  0
  -38.6878   61.5906   65.6618 H   0  0  0  0  0  0  0  0  0  0  0  0
  -40.1118   61.0282   63.5879 C   0  0  0  0  0  0  0  0  0  0  0  0
  -39.1232   59.9789   63.6098 O   0  0  0  0  0  0  0  0  0  0  0  0
  -37.9978   59.9352   62.4869 P   0  0  0  0  0  0  0  0  0  0  0  0
  -38.1101   58.6262   61.8123 O   0  0  0  0  0  0  0  0  0  0  0  0
  -38.1407   61.1696   61.6902 O   0  0  0  0  0  0  0  0  0  0  0  0
  -38.9986   61.1647   61.2374 H   0  0  0  0  0  0  0  0  0  0  0  0
  -36.5827   59.9992   63.2013 O   0  0  0  0  0  0  0  0  0  0  0  0
  -36.4112   60.8188   64.3813 C   0  0  0  0  0  0  0  0  0  0  0  0
  -34.9191   60.9926   64.5514 C   0  0  0  0  0  0  0  0  0  0  0  0
  -34.4327   62.4089   64.7862 N   0  0  0  0  0  0  0  0  0  0  0  0
  -35.4594   63.4089   64.3609 C   0  0  0  0  0  0  0  0  0  0  0  0
  -33.1822   62.6449   64.0013 C   0  0  0  0  0  0  0  0  0  0  0  0
  -34.1468   62.6061   66.2417 C   0  0  0  0  0  0  0  0  0  0  0  0
 34 33  1  0  0  0
 34 35  1  0  0  0
 34 36  1  0  0  0
 34 37  1  0  0  0
 22 23  1  0  0  0
 22 25  1  0  0  0
 22 21  1  0  0  0
 23 24  1  0  0  0
 27 26  1  0  0  0
 27 28  2  0  0  0
 27 31  1  0  0  0
 27 29  1  0  0  0
 25 26  1  0  0  0
 32 33  1  0  0  0
 32 31  1  0  0  0
 29 30  1  0  0  0
 20 21  1  0  0  0
 20  2  1  0  0  0
  1  2  2  0  0  0
  2  3  1  0  0  0
  3  4  1  0  0  0
  4  5  1  0  0  0
  5  6  1  0  0  0
  6  7  1  0  0  0
  7  8  1  0  0  0
  8  9  1  0  0  0
  9 10  1  0  0  0
 10 11  2  0  0  0
 11 12  1  0  0  0
 12 13  1  0  0  0
 13 14  1  0  0  0
 14 15  1  0  0  0
 15 16  1  0  0  0
 16 17  1  0  0  0
 17 18  1  0  0  0
 18 19  1  0  0  0
M  CHG 1  28  -1
M  END
> <minimizedAffinity>
-8.09127

> <CNNscore>
0.8225589991

> <CNNaffinity>
6.7202367783

> <CNN_VS>
5.5277910233

> <CNNaffinity_variance>
0.3797828257

$$$$
/media/chris/experiments/cd1a-new-docking/inputs/ligands/4x6c_ligand.pdb


 37 36  0  0  0  0  0  0  0  0999 V2000
  -42.9568   60.7207   63.9372 O   0  0  0  0  0  0  0  0  0  0  0  0
  -43.1485   60.0104   64.8762 C   0  0  0  0  0  0  0  0  0  0  0  0
  -44.4531   59.3531   65.1878 C   0  0  0  0  0  0  0  0  0  0  0  0
  -44.5743   57.9658   64.5860 C   0  0  0  0  0  0  0  0  0  0  0  0
  -45.0022   56.9215   65.5943 C   0  0  0  0  0  0  0  0  0  0  0  0
  -46.3336   57.1956   66.2531 C   0  0  0  0  0  0  0  0  0  0  0  0
  -47.5223   56.8006   65.4145 C   0  0  0  0  0  0  0  0  0  0  0  0
  -48.2288   57.9910   64.8234 C   0  0  0  0  0  0  0  0  0  0  0  0
  -49.7257   57.9630   64.9168 C   0  0  0  0  0  0  0  0  0  0  0  0
  -50.3131   59.2674   65.2552 C   0  0  0  0  0  0  0  0  0  0  0  0
  -50.9057   60.1210   64.4498 C   0  0  0  0  0  0  0  0  0  0  0  0
  -51.1562   59.9798   62.9932 C   0  0  0  0  0  0  0  0  0  0  0  0
  -49.9752   60.2854   62.0947 C   0  0  0  0  0  0  0  0  0  0  0  0
  -49.8622   59.3304   60.9383 C   0  0  0  0  0  0  0  0  0  0  0  0
  -50.0720   57.8812   61.2959 C   0  0  0  0  0  0  0  0  0  0  0  0
  -49.2283   56.9470   60.4569 C   0  0  0  0  0  0  0  0  0  0  0  0
  -49.3314   57.1615   58.9726 C   0  0  0  0  0  0  0  0  0  0  0  0
  -48.0831   56.8444   58.2512 C   0  0  0  0  0  0  0  0  0  0  0  0
  -47.2261   55.8980   58.9628 C   0  0  0  0  0  0  0  0  0  0  0  0
  -42.2182   59.7131   65.7835 O   0  0  0  0  0  0  0  0  0  0  0  0
  -41.4769   60.8095   66.3635 C   0  0  0  0  0  0  0  0  0  0  0  0
  -40.4203   61.2105   65.3598 C   0  0  0  0  0  0  0  0  0  0  0  0
  -39.5565   62.1865   65.9423 O   0  0  0  0  0  0  0  0  0  0  0  0
  -39.0884   61.7951   66.6963 H   0  0  0  0  0  0  0  0  0  0  0  0
  -39.5726   60.0763   64.8372 C   0  0  0  0  0  0  0  0  0  0  0  0
  -39.2414   60.3475   63.4604 O   0  0  0  0  0  0  0  0  0  0  0  0
  -37.7306   60.6381   63.0575 P   0  0  0  0  0  0  0  0  0  0  0  0
  -36.9291   59.4893   63.5256 O   0  0  0  0  0  0  0  0  0  0  0  0
  -37.7292   60.9787   61.6212 O   0  0  0  0  0  0  0  0  0  0  0  0
  -38.0209   60.2100   61.1064 H   0  0  0  0  0  0  0  0  0  0  0  0
  -37.2471   61.9273   63.8457 O   0  0  0  0  0  0  0  0  0  0  0  0
  -36.3693   62.8773   63.1972 C   0  0  0  0  0  0  0  0  0  0  0  0
  -35.1679   63.0168   64.1042 C   0  0  0  0  0  0  0  0  0  0  0  0
  -34.2887   64.2290   63.8690 N   0  0  0  0  0  0  0  0  0  0  0  0
  -34.1609   65.0512   65.1109 C   0  0  0  0  0  0  0  0  0  0  0  0
  -34.8854   65.0783   62.7929 C   0  0  0  0  0  0  0  0  0  0  0  0
  -32.9237   63.7840   63.4470 C   0  0  0  0  0  0  0  0  0  0  0  0
 34 33  1  0  0  0
 34 35  1  0  0  0
 34 36  1  0  0  0
 34 37  1  0  0  0
 22 23  1  0  0  0
 22 25  1  0  0  0
 22 21  1  0  0  0
 23 24  1  0  0  0
 27 26  1  0  0  0
 27 28  2  0  0  0
 27 31  1  0  0  0
 27 29  1  0  0  0
 25 26  1  0  0  0
 32 33  1  0  0  0
 32 31  1  0  0  0
 29 30  1  0  0  0
 20 21  1  0  0  0
 20  2  1  0  0  0
  1  2  2  0  0  0
  2  3  1  0  0  0
  3  4  1  0  0  0
  4  5  1  0  0  0
  5  6  1  0  0  0
  6  7  1  0  0  0
  7  8  1  0  0  0
  8  9  1  0  0  0
  9 10  1  0  0  0
 10 11  2  0  0  0
 11 12  1  0  0  0
 12 13  1  0  0  0
 13 14  1  0  0  0
 14 15  1  0  0  0
 15 16  1  0  0  0
 16 17  1  0  0  0
 17 18  1  0  0  0
 18 19  1  0  0  0
M  CHG 1  28  -1
M  END
> <minimizedAffinity>
-8.00609

> <CNNscore>
0.7657011747

> <CNNaffinity>
6.5397634506

> <CNN_VS>
5.0075044632

> <CNNaffinity_variance>
0.2770155668

$$$$
/media/chris/experiments/cd1a-new-docking/inputs/ligands/4x6c_ligand.pdb


 37 36  0  0  0  0  0  0  0  0999 V2000
  -43.1624   60.0796   66.6427 O   0  0  0  0  0  0  0  0  0  0  0  0
  -43.1084   59.6430   65.5339 C   0  0  0  0  0  0  0  0  0  0  0  0
  -44.2284   58.9297   64.8498 C   0  0  0  0  0  0  0  0  0  0  0  0
  -45.5910   59.3000   65.4043 C   0  0  0  0  0  0  0  0  0  0  0  0
  -46.1938   58.2095   66.2633 C   0  0  0  0  0  0  0  0  0  0  0  0
  -47.2598   57.3888   65.5765 C   0  0  0  0  0  0  0  0  0  0  0  0
  -47.9990   58.1323   64.4934 C   0  0  0  0  0  0  0  0  0  0  0  0
  -49.4699   58.2603   64.7863 C   0  0  0  0  0  0  0  0  0  0  0  0
  -50.0001   59.6632   64.8191 C   0  0  0  0  0  0  0  0  0  0  0  0
  -51.0771   59.9022   63.8476 C   0  0  0  0  0  0  0  0  0  0  0  0
  -50.9670   60.1252   62.5566 C   0  0  0  0  0  0  0  0  0  0  0  0
  -49.7279   60.1712   61.7398 C   0  0  0  0  0  0  0  0  0  0  0  0
  -49.6699   59.1918   60.5852 C   0  0  0  0  0  0  0  0  0  0  0  0
  -49.3533   57.7897   61.0278 C   0  0  0  0  0  0  0  0  0  0  0  0
  -49.9058   56.7080   60.1352 C   0  0  0  0  0  0  0  0  0  0  0  0
  -48.8524   55.7075   59.7135 C   0  0  0  0  0  0  0  0  0  0  0  0
  -47.5997   56.3101   59.1413 C   0  0  0  0  0  0  0  0  0  0  0  0
  -47.1130   55.6065   57.9383 C   0  0  0  0  0  0  0  0  0  0  0  0
  -47.5292   56.2388   56.6880 C   0  0  0  0  0  0  0  0  0  0  0  0
  -42.0298   59.7276   64.7552 O   0  0  0  0  0  0  0  0  0  0  0  0
  -41.9649   60.8288   63.8219 C   0  0  0  0  0  0  0  0  0  0  0  0
  -40.7379   61.6376   64.1750 C   0  0  0  0  0  0  0  0  0  0  0  0
  -40.8448   62.1018   65.5207 O   0  0  0  0  0  0  0  0  0  0  0  0
  -40.8596   61.3427   66.1244 H   0  0  0  0  0  0  0  0  0  0  0  0
  -39.4261   60.9058   64.0269 C   0  0  0  0  0  0  0  0  0  0  0  0
  -39.5307   59.9972   62.9124 O   0  0  0  0  0  0  0  0  0  0  0  0
  -38.7662   60.3242   61.5567 P   0  0  0  0  0  0  0  0  0  0  0  0
  -39.7962   60.5828   60.5304 O   0  0  0  0  0  0  0  0  0  0  0  0
  -37.7787   61.3769   61.8661 O   0  0  0  0  0  0  0  0  0  0  0  0
  -38.2418   62.1851   62.1367 H   0  0  0  0  0  0  0  0  0  0  0  0
  -37.9541   59.0324   61.1221 O   0  0  0  0  0  0  0  0  0  0  0  0
  -37.7335   57.9686   62.0778 C   0  0  0  0  0  0  0  0  0  0  0  0
  -36.2932   58.1000   62.5183 C   0  0  0  0  0  0  0  0  0  0  0  0
  -36.0651   58.3451   63.9967 N   0  0  0  0  0  0  0  0  0  0  0  0
  -34.8566   57.6124   64.4843 C   0  0  0  0  0  0  0  0  0  0  0  0
  -37.2541   57.8740   64.7711 C   0  0  0  0  0  0  0  0  0  0  0  0
  -35.8670   59.8086   64.2376 C   0  0  0  0  0  0  0  0  0  0  0  0
 34 33  1  0  0  0
 34 35  1  0  0  0
 34 36  1  0  0  0
 34 37  1  0  0  0
 22 23  1  0  0  0
 22 25  1  0  0  0
 22 21  1  0  0  0
 23 24  1  0  0  0
 27 26  1  0  0  0
 27 28  2  0  0  0
 27 31  1  0  0  0
 27 29  1  0  0  0
 25 26  1  0  0  0
 32 33  1  0  0  0
 32 31  1  0  0  0
 29 30  1  0  0  0
 20 21  1  0  0  0
 20  2  1  0  0  0
  1  2  2  0  0  0
  2  3  1  0  0  0
  3  4  1  0  0  0
  4  5  1  0  0  0
  5  6  1  0  0  0
  6  7  1  0  0  0
  7  8  1  0  0  0
  8  9  1  0  0  0
  9 10  1  0  0  0
 10 11  2  0  0  0
 11 12  1  0  0  0
 12 13  1  0  0  0
 13 14  1  0  0  0
 14 15  1  0  0  0
 15 16  1  0  0  0
 16 17  1  0  0  0
 17 18  1  0  0  0
 18 19  1  0  0  0
M  CHG 1  28  -1
M  END
> <minimizedAffinity>
-8.24158

> <CNNscore>
0.7600024343

> <CNNaffinity>
6.9094138145

> <CNN_VS>
5.2511711121

> <CNNaffinity_variance>
0.2851125598

$$$$
/media/chris/experiments/cd1a-new-docking/inputs/ligands/4x6c_ligand.pdb


 37 36  0  0  0  0  0  0  0  0999 V2000
  -44.6943   57.4512   64.0828 O   0  0  0  0  0  0  0  0  0  0  0  0
  -44.6402   57.6258   65.2616 C   0  0  0  0  0  0  0  0  0  0  0  0
  -45.5726   57.0091   66.2522 C   0  0  0  0  0  0  0  0  0  0  0  0
  -46.9291   56.6771   65.6595 C   0  0  0  0  0  0  0  0  0  0  0  0
  -47.7649   57.9064   65.3756 C   0  0  0  0  0  0  0  0  0  0  0  0
  -47.5020   59.0700   66.3024 C   0  0  0  0  0  0  0  0  0  0  0  0
  -48.1918   60.3457   65.8911 C   0  0  0  0  0  0  0  0  0  0  0  0
  -49.5138   60.0920   65.2177 C   0  0  0  0  0  0  0  0  0  0  0  0
  -49.7242   60.8136   63.9195 C   0  0  0  0  0  0  0  0  0  0  0  0
  -50.9143   60.3589   63.1861 C   0  0  0  0  0  0  0  0  0  0  0  0
  -51.1339   59.1768   62.6541 C   0  0  0  0  0  0  0  0  0  0  0  0
  -50.2467   57.9864   62.6752 C   0  0  0  0  0  0  0  0  0  0  0  0
  -49.1724   57.9535   61.6074 C   0  0  0  0  0  0  0  0  0  0  0  0
  -49.6894   58.3452   60.2505 C   0  0  0  0  0  0  0  0  0  0  0  0
  -49.8369   57.2022   59.2789 C   0  0  0  0  0  0  0  0  0  0  0  0
  -48.8115   56.1127   59.5027 C   0  0  0  0  0  0  0  0  0  0  0  0
  -47.5018   56.3205   58.7946 C   0  0  0  0  0  0  0  0  0  0  0  0
  -47.6600   56.8182   57.4139 C   0  0  0  0  0  0  0  0  0  0  0  0
  -46.7334   56.2029   56.4656 C   0  0  0  0  0  0  0  0  0  0  0  0
  -43.7378   58.4072   65.8549 O   0  0  0  0  0  0  0  0  0  0  0  0
  -43.7104   59.8016   65.4768 C   0  0  0  0  0  0  0  0  0  0  0  0
  -42.2827   60.2741   65.6282 C   0  0  0  0  0  0  0  0  0  0  0  0
  -41.9650   60.3923   67.0150 O   0  0  0  0  0  0  0  0  0  0  0  0
  -42.0137   59.5185   67.4334 H   0  0  0  0  0  0  0  0  0  0  0  0
  -41.2455   59.3927   64.9759 C   0  0  0  0  0  0  0  0  0  0  0  0
  -39.9372   59.8833   65.3314 O   0  0  0  0  0  0  0  0  0  0  0  0
  -39.4454   61.2884   64.7717 P   0  0  0  0  0  0  0  0  0  0  0  0
  -40.1267   61.5019   63.4788 O   0  0  0  0  0  0  0  0  0  0  0  0
  -39.6365   62.2711   65.8564 O   0  0  0  0  0  0  0  0  0  0  0  0
  -40.5826   62.3556   66.0532 H   0  0  0  0  0  0  0  0  0  0  0  0
  -37.8862   61.1928   64.4947 O   0  0  0  0  0  0  0  0  0  0  0  0
  -37.4129   60.6764   63.2286 C   0  0  0  0  0  0  0  0  0  0  0  0
  -36.4128   59.5954   63.5702 C   0  0  0  0  0  0  0  0  0  0  0  0
  -36.9137   58.1675   63.4800 N   0  0  0  0  0  0  0  0  0  0  0  0
  -37.2129   57.6146   64.8364 C   0  0  0  0  0  0  0  0  0  0  0  0
  -35.8714   57.3117   62.8345 C   0  0  0  0  0  0  0  0  0  0  0  0
  -38.1645   58.1258   62.6596 C   0  0  0  0  0  0  0  0  0  0  0  0
 34 33  1  0  0  0
 34 35  1  0  0  0
 34 36  1  0  0  0
 34 37  1  0  0  0
 22 23  1  0  0  0
 22 25  1  0  0  0
 22 21  1  0  0  0
 23 24  1  0  0  0
 27 26  1  0  0  0
 27 28  2  0  0  0
 27 31  1  0  0  0
 27 29  1  0  0  0
 25 26  1  0  0  0
 32 33  1  0  0  0
 32 31  1  0  0  0
 29 30  1  0  0  0
 20 21  1  0  0  0
 20  2  1  0  0  0
  1  2  2  0  0  0
  2  3  1  0  0  0
  3  4  1  0  0  0
  4  5  1  0  0  0
  5  6  1  0  0  0
  6  7  1  0  0  0
  7  8  1  0  0  0
  8  9  1  0  0  0
  9 10  1  0  0  0
 10 11  2  0  0  0
 11 12  1  0  0  0
 12 13  1  0  0  0
 13 14  1  0  0  0
 14 15  1  0  0  0
 15 16  1  0  0  0
 16 17  1  0  0  0
 17 18  1  0  0  0
 18 19  1  0  0  0
M  CHG 1  28  -1
M  END
> <minimizedAffinity>
-7.84134

> <CNNscore>
0.7435513735

> <CNNaffinity>
6.8646306992

> <CNN_VS>
5.1042056084

> <CNNaffinity_variance>
0.4303115010

$$$$
/media/chris/experiments/cd1a-new-docking/inputs/ligands/4x6c_ligand.pdb


 37 36  0  0  0  0  0  0  0  0999 V2000
  -41.6172   61.3661   65.3132 O   0  0  0  0  0  0  0  0  0  0  0  0
  -41.4923   60.1896   65.4655 C   0  0  0  0  0  0  0  0  0  0  0  0
  -42.6255   59.2367   65.6624 C   0  0  0  0  0  0  0  0  0  0  0  0
  -43.8912   59.6677   64.9457 C   0  0  0  0  0  0  0  0  0  0  0  0
  -44.9038   58.5506   64.8149 C   0  0  0  0  0  0  0  0  0  0  0  0
  -46.2519   58.8527   65.4258 C   0  0  0  0  0  0  0  0  0  0  0  0
  -47.4172   58.5062   64.5346 C   0  0  0  0  0  0  0  0  0  0  0  0
  -48.4167   57.6123   65.2183 C   0  0  0  0  0  0  0  0  0  0  0  0
  -49.8490   58.0440   65.1063 C   0  0  0  0  0  0  0  0  0  0  0  0
  -50.0109   59.4996   64.9795 C   0  0  0  0  0  0  0  0  0  0  0  0
  -50.5581   60.1693   63.9893 C   0  0  0  0  0  0  0  0  0  0  0  0
  -51.1756   59.6287   62.7519 C   0  0  0  0  0  0  0  0  0  0  0  0
  -50.2181   59.3541   61.6103 C   0  0  0  0  0  0  0  0  0  0  0  0
  -49.8500   57.9002   61.4974 C   0  0  0  0  0  0  0  0  0  0  0  0
  -50.1843   57.2673   60.1709 C   0  0  0  0  0  0  0  0  0  0  0  0
  -49.0672   56.3929   59.6456 C   0  0  0  0  0  0  0  0  0  0  0  0
  -48.2802   56.9849   58.5099 C   0  0  0  0  0  0  0  0  0  0  0  0
  -47.7434   55.9692   57.5828 C   0  0  0  0  0  0  0  0  0  0  0  0
  -47.6215   56.4463   56.2067 C   0  0  0  0  0  0  0  0  0  0  0  0
  -40.3146   59.5656   65.4882 O   0  0  0  0  0  0  0  0  0  0  0  0
  -39.1255   60.3798   65.3823 C   0  0  0  0  0  0  0  0  0  0  0  0
  -38.1768   59.6603   64.4514 C   0  0  0  0  0  0  0  0  0  0  0  0
  -37.8313   58.3929   65.0102 O   0  0  0  0  0  0  0  0  0  0  0  0
  -38.6264   57.8412   65.0765 H   0  0  0  0  0  0  0  0  0  0  0  0
  -38.7003   59.4370   63.0534 C   0  0  0  0  0  0  0  0  0  0  0  0
  -38.3004   58.1219   62.6182 O   0  0  0  0  0  0  0  0  0  0  0  0
  -37.2323   57.9713   61.4494 P   0  0  0  0  0  0  0  0  0  0  0  0
  -37.0047   56.5252   61.2548 O   0  0  0  0  0  0  0  0  0  0  0  0
  -37.7214   58.7815   60.3165 O   0  0  0  0  0  0  0  0  0  0  0  0
  -38.5570   58.4114   59.9913 H   0  0  0  0  0  0  0  0  0  0  0  0
  -35.8697   58.6213   61.9371 O   0  0  0  0  0  0  0  0  0  0  0  0
  -34.9069   57.8147   62.6555 C   0  0  0  0  0  0  0  0  0  0  0  0
  -33.5462   58.2881   62.1973 C   0  0  0  0  0  0  0  0  0  0  0  0
  -32.5227   58.5384   63.2870 N   0  0  0  0  0  0  0  0  0  0  0  0
  -31.8452   59.8575   63.0973 C   0  0  0  0  0  0  0  0  0  0  0  0
  -31.4868   57.4607   63.2573 C   0  0  0  0  0  0  0  0  0  0  0  0
  -33.2000   58.5358   64.6213 C   0  0  0  0  0  0  0  0  0  0  0  0
 34 33  1  0  0  0
 34 35  1  0  0  0
 34 36  1  0  0  0
 34 37  1  0  0  0
 22 23  1  0  0  0
 22 25  1  0  0  0
 22 21  1  0  0  0
 23 24  1  0  0  0
 27 26  1  0  0  0
 27 28  2  0  0  0
 27 31  1  0  0  0
 27 29  1  0  0  0
 25 26  1  0  0  0
 32 33  1  0  0  0
 32 31  1  0  0  0
 29 30  1  0  0  0
 20 21  1  0  0  0
 20  2  1  0  0  0
  1  2  2  0  0  0
  2  3  1  0  0  0
  3  4  1  0  0  0
  4  5  1  0  0  0
  5  6  1  0  0  0
  6  7  1  0  0  0
  7  8  1  0  0  0
  8  9  1  0  0  0
  9 10  1  0  0  0
 10 11  2  0  0  0
 11 12  1  0  0  0
 12 13  1  0  0  0
 13 14  1  0  0  0
 14 15  1  0  0  0
 15 16  1  0  0  0
 16 17  1  0  0  0
 17 18  1  0  0  0
 18 19  1  0  0  0
M  CHG 1  28  -1
M  END
> <minimizedAffinity>
-7.66869

> <CNNscore>
0.7267664075

> <CNNaffinity>
6.3749694824

> <CNN_VS>
4.6331138611

> <CNNaffinity_variance>
0.4951523244

$$$$
