/media/chris/experiments/cd1a-new-docking/inputs/ligands/4x6c_ligand.pdb


 37 36  0  0  0  0  0  0  0  0999 V2000
  -40.1347   62.2502   65.7905 O   0  0  0  0  0  0  0  0  0  0  0  0
  -39.7083   61.1945   65.4344 C   0  0  0  0  0  0  0  0  0  0  0  0
  -40.4297   59.8955   65.5868 C   0  0  0  0  0  0  0  0  0  0  0  0
  -41.7628   59.8716   64.8630 C   0  0  0  0  0  0  0  0  0  0  0  0
  -42.9285   59.5847   65.7845 C   0  0  0  0  0  0  0  0  0  0  0  0
  -44.2840   59.8961   65.1951 C   0  0  0  0  0  0  0  0  0  0  0  0
  -45.2937   58.7903   65.3687 C   0  0  0  0  0  0  0  0  0  0  0  0
  -46.2831   59.0831   66.4644 C   0  0  0  0  0  0  0  0  0  0  0  0
  -47.6099   59.6145   66.0089 C   0  0  0  0  0  0  0  0  0  0  0  0
  -48.5448   58.5621   65.5854 C   0  0  0  0  0  0  0  0  0  0  0  0
  -49.7484   58.7064   65.0762 C   0  0  0  0  0  0  0  0  0  0  0  0
  -50.4676   59.9701   64.7754 C   0  0  0  0  0  0  0  0  0  0  0  0
  -50.9929   60.1017   63.3604 C   0  0  0  0  0  0  0  0  0  0  0  0
  -49.9605   59.7564   62.3226 C   0  0  0  0  0  0  0  0  0  0  0  0
  -50.3736   58.6726   61.3600 C   0  0  0  0  0  0  0  0  0  0  0  0
  -49.6320   57.3746   61.5924 C   0  0  0  0  0  0  0  0  0  0  0  0
  -48.8406   56.8778   60.4148 C   0  0  0  0  0  0  0  0  0  0  0  0
  -49.4390   57.2440   59.1159 C   0  0  0  0  0  0  0  0  0  0  0  0
  -48.6294   56.8378   57.9689 C   0  0  0  0  0  0  0  0  0  0  0  0
  -38.5183   61.0320   64.8561 O   0  0  0  0  0  0  0  0  0  0  0  0
  -37.3726   60.8674   65.7211 C   0  0  0  0  0  0  0  0  0  0  0  0
  -36.4682   62.0561   65.4900 C   0  0  0  0  0  0  0  0  0  0  0  0
  -36.3278   62.7910   66.7059 O   0  0  0  0  0  0  0  0  0  0  0  0
  -35.8915   62.2356   67.3708 H   0  0  0  0  0  0  0  0  0  0  0  0
  -35.0895   61.7195   64.9758 C   0  0  0  0  0  0  0  0  0  0  0  0
  -35.0517   60.3156   64.6493 O   0  0  0  0  0  0  0  0  0  0  0  0
  -33.6875   59.6575   64.1643 P   0  0  0  0  0  0  0  0  0  0  0  0
  -32.8225   60.7555   63.6879 O   0  0  0  0  0  0  0  0  0  0  0  0
  -33.2142   58.7947   65.2647 O   0  0  0  0  0  0  0  0  0  0  0  0
  -33.0099   59.3416   66.0393 H   0  0  0  0  0  0  0  0  0  0  0  0
  -34.0047   58.7121   62.9304 O   0  0  0  0  0  0  0  0  0  0  0  0
  -34.7122   57.4679   63.1433 C   0  0  0  0  0  0  0  0  0  0  0  0
  -36.0587   57.8497   63.7146 C   0  0  0  0  0  0  0  0  0  0  0  0
  -37.2117   57.9030   62.7321 N   0  0  0  0  0  0  0  0  0  0  0  0
  -38.5118   57.6120   63.4104 C   0  0  0  0  0  0  0  0  0  0  0  0
  -36.9978   56.8892   61.6543 C   0  0  0  0  0  0  0  0  0  0  0  0
  -37.2861   59.2665   62.1199 C   0  0  0  0  0  0  0  0  0  0  0  0
 34 33  1  0  0  0
 34 35  1  0  0  0
 34 36  1  0  0  0
 34 37  1  0  0  0
 22 23  1  0  0  0
 22 25  1  0  0  0
 22 21  1  0  0  0
 23 24  1  0  0  0
 27 26  1  0  0  0
 27 28  2  0  0  0
 27 31  1  0  0  0
 27 29  1  0  0  0
 25 26  1  0  0  0
 32 33  1  0  0  0
 32 31  1  0  0  0
 29 30  1  0  0  0
 20 21  1  0  0  0
 20  2  1  0  0  0
  1  2  2  0  0  0
  2  3  1  0  0  0
  3  4  1  0  0  0
  4  5  1  0  0  0
  5  6  1  0  0  0
  6  7  1  0  0  0
  7  8  1  0  0  0
  8  9  1  0  0  0
  9 10  1  0  0  0
 10 11  2  0  0  0
 11 12  1  0  0  0
 12 13  1  0  0  0
 13 14  1  0  0  0
 14 15  1  0  0  0
 15 16  1  0  0  0
 16 17  1  0  0  0
 17 18  1  0  0  0
 18 19  1  0  0  0
M  CHG 1  28  -1
M  END
> <minimizedAffinity>
-7.59786

> <CNNscore>
0.7382212877

> <CNNaffinity>
6.6955747604

> <CNN_VS>
4.9428157806

> <CNNaffinity_variance>
0.4117192328

$$$$
/media/chris/experiments/cd1a-new-docking/inputs/ligands/4x6c_ligand.pdb


 37 36  0  0  0  0  0  0  0  0999 V2000
  -40.6823   61.5354   65.8180 O   0  0  0  0  0  0  0  0  0  0  0  0
  -40.8518   60.4279   65.4085 C   0  0  0  0  0  0  0  0  0  0  0  0
  -41.5416   59.3416   66.1670 C   0  0  0  0  0  0  0  0  0  0  0  0
  -43.0458   59.5286   66.2302 C   0  0  0  0  0  0  0  0  0  0  0  0
  -43.6970   59.5321   64.8641 C   0  0  0  0  0  0  0  0  0  0  0  0
  -44.5472   58.3180   64.5726 C   0  0  0  0  0  0  0  0  0  0  0  0
  -44.6072   57.3281   65.7079 C   0  0  0  0  0  0  0  0  0  0  0  0
  -45.9899   57.2049   66.2896 C   0  0  0  0  0  0  0  0  0  0  0  0
  -47.0173   58.1317   65.7103 C   0  0  0  0  0  0  0  0  0  0  0  0
  -48.1601   57.4311   65.1071 C   0  0  0  0  0  0  0  0  0  0  0  0
  -49.4072   57.8394   65.0245 C   0  0  0  0  0  0  0  0  0  0  0  0
  -49.9812   59.1239   65.4988 C   0  0  0  0  0  0  0  0  0  0  0  0
  -50.6239   59.9857   64.4313 C   0  0  0  0  0  0  0  0  0  0  0  0
  -50.0862   59.7041   63.0552 C   0  0  0  0  0  0  0  0  0  0  0  0
  -51.0788   59.0822   62.1066 C   0  0  0  0  0  0  0  0  0  0  0  0
  -50.7235   57.6568   61.7452 C   0  0  0  0  0  0  0  0  0  0  0  0
  -50.6707   57.3718   60.2701 C   0  0  0  0  0  0  0  0  0  0  0  0
  -49.4733   56.6077   59.8681 C   0  0  0  0  0  0  0  0  0  0  0  0
  -48.8022   57.1572   58.6917 C   0  0  0  0  0  0  0  0  0  0  0  0
  -40.4374   60.0074   64.2134 O   0  0  0  0  0  0  0  0  0  0  0  0
  -40.3880   60.9783   63.1443 C   0  0  0  0  0  0  0  0  0  0  0  0
  -39.3354   60.5082   62.1669 C   0  0  0  0  0  0  0  0  0  0  0  0
  -39.7219   60.8693   60.8408 O   0  0  0  0  0  0  0  0  0  0  0  0
  -39.7577   61.8358   60.7664 H   0  0  0  0  0  0  0  0  0  0  0  0
  -37.9458   61.0414   62.4190 C   0  0  0  0  0  0  0  0  0  0  0  0
  -37.9805   61.8749   63.5950 O   0  0  0  0  0  0  0  0  0  0  0  0
  -36.6189   62.2975   64.2999 P   0  0  0  0  0  0  0  0  0  0  0  0
  -36.1491   63.5278   63.6317 O   0  0  0  0  0  0  0  0  0  0  0  0
  -36.8797   62.3226   65.7527 O   0  0  0  0  0  0  0  0  0  0  0  0
  -37.5323   63.0119   65.9520 H   0  0  0  0  0  0  0  0  0  0  0  0
  -35.5491   61.1562   64.0351 O   0  0  0  0  0  0  0  0  0  0  0  0
  -35.2628   60.1871   65.0709 C   0  0  0  0  0  0  0  0  0  0  0  0
  -35.0810   58.8645   64.3615 C   0  0  0  0  0  0  0  0  0  0  0  0
  -36.2630   57.9165   64.3998 N   0  0  0  0  0  0  0  0  0  0  0  0
  -37.4418   58.5513   65.0649 C   0  0  0  0  0  0  0  0  0  0  0  0
  -35.8915   56.6842   65.1607 C   0  0  0  0  0  0  0  0  0  0  0  0
  -36.6474   57.5378   63.0040 C   0  0  0  0  0  0  0  0  0  0  0  0
 34 33  1  0  0  0
 34 35  1  0  0  0
 34 36  1  0  0  0
 34 37  1  0  0  0
 22 23  1  0  0  0
 22 25  1  0  0  0
 22 21  1  0  0  0
 23 24  1  0  0  0
 27 26  1  0  0  0
 27 28  2  0  0  0
 27 31  1  0  0  0
 27 29  1  0  0  0
 25 26  1  0  0  0
 32 33  1  0  0  0
 32 31  1  0  0  0
 29 30  1  0  0  0
 20 21  1  0  0  0
 20  2  1  0  0  0
  1  2  2  0  0  0
  2  3  1  0  0  0
  3  4  1  0  0  0
  4  5  1  0  0  0
  5  6  1  0  0  0
  6  7  1  0  0  0
  7  8  1  0  0  0
  8  9  1  0  0  0
  9 10  1  0  0  0
 10 11  2  0  0  0
 11 12  1  0  0  0
 12 13  1  0  0  0
 13 14  1  0  0  0
 14 15  1  0  0  0
 15 16  1  0  0  0
 16 17  1  0  0  0
 17 18  1  0  0  0
 18 19  1  0  0  0
M  CHG 1  28  -1
M  END
> <minimizedAffinity>
-7.90346

> <CNNscore>
0.7103451490

> <CNNaffinity>
6.6661024094

> <CNN_VS>
4.7352333069

> <CNNaffinity_variance>
0.4792264998

$$$$
/media/chris/experiments/cd1a-new-docking/inputs/ligands/4x6c_ligand.pdb


 37 36  0  0  0  0  0  0  0  0999 V2000
  -41.9119   57.9536   65.6783 O   0  0  0  0  0  0  0  0  0  0  0  0
  -42.1095   59.1292   65.6331 C   0  0  0  0  0  0  0  0  0  0  0  0
  -43.1814   59.7764   64.8187 C   0  0  0  0  0  0  0  0  0  0  0  0
  -44.5781   59.4394   65.3055 C   0  0  0  0  0  0  0  0  0  0  0  0
  -45.1932   58.2700   64.5675 C   0  0  0  0  0  0  0  0  0  0  0  0
  -45.7970   57.2128   65.4617 C   0  0  0  0  0  0  0  0  0  0  0  0
  -47.2208   57.4971   65.8673 C   0  0  0  0  0  0  0  0  0  0  0  0
  -48.0285   58.0947   64.7466 C   0  0  0  0  0  0  0  0  0  0  0  0
  -49.5169   57.9804   64.8936 C   0  0  0  0  0  0  0  0  0  0  0  0
  -50.1710   59.2579   65.2115 C   0  0  0  0  0  0  0  0  0  0  0  0
  -50.8435   60.0459   64.4018 C   0  0  0  0  0  0  0  0  0  0  0  0
  -51.1366   59.8394   62.9610 C   0  0  0  0  0  0  0  0  0  0  0  0
  -50.0200   60.2120   62.0073 C   0  0  0  0  0  0  0  0  0  0  0  0
  -49.8233   59.1950   60.9169 C   0  0  0  0  0  0  0  0  0  0  0  0
  -50.0608   57.7672   61.3374 C   0  0  0  0  0  0  0  0  0  0  0  0
  -49.4792   56.7688   60.3609 C   0  0  0  0  0  0  0  0  0  0  0  0
  -49.4424   57.2296   58.9305 C   0  0  0  0  0  0  0  0  0  0  0  0
  -48.2011   56.8481   58.2285 C   0  0  0  0  0  0  0  0  0  0  0  0
  -47.2902   56.0539   59.0507 C   0  0  0  0  0  0  0  0  0  0  0  0
  -41.3888   60.0288   66.3026 O   0  0  0  0  0  0  0  0  0  0  0  0
  -39.9908   60.1536   65.9592 C   0  0  0  0  0  0  0  0  0  0  0  0
  -39.8350   61.4508   65.1994 C   0  0  0  0  0  0  0  0  0  0  0  0
  -40.5132   62.4956   65.8970 O   0  0  0  0  0  0  0  0  0  0  0  0
  -40.0968   62.6295   66.7629 H   0  0  0  0  0  0  0  0  0  0  0  0
  -38.4088   61.8850   64.9624 C   0  0  0  0  0  0  0  0  0  0  0  0
  -37.5837   61.3440   66.0138 O   0  0  0  0  0  0  0  0  0  0  0  0
  -36.0444   61.7372   66.0866 P   0  0  0  0  0  0  0  0  0  0  0  0
  -35.8182   62.7897   65.0757 O   0  0  0  0  0  0  0  0  0  0  0  0
  -35.7429   62.0236   67.5030 O   0  0  0  0  0  0  0  0  0  0  0  0
  -36.2511   62.7978   67.7915 H   0  0  0  0  0  0  0  0  0  0  0  0
  -35.1886   60.4671   65.6725 O   0  0  0  0  0  0  0  0  0  0  0  0
  -35.2808   59.9483   64.3248 C   0  0  0  0  0  0  0  0  0  0  0  0
  -36.0147   58.6315   64.4373 C   0  0  0  0  0  0  0  0  0  0  0  0
  -36.9424   58.2822   63.2906 N   0  0  0  0  0  0  0  0  0  0  0  0
  -36.3375   57.2396   62.4063 C   0  0  0  0  0  0  0  0  0  0  0  0
  -37.2099   59.5052   62.4733 C   0  0  0  0  0  0  0  0  0  0  0  0
  -38.2349   57.7584   63.8331 C   0  0  0  0  0  0  0  0  0  0  0  0
 34 33  1  0  0  0
 34 35  1  0  0  0
 34 36  1  0  0  0
 34 37  1  0  0  0
 22 23  1  0  0  0
 22 25  1  0  0  0
 22 21  1  0  0  0
 23 24  1  0  0  0
 27 26  1  0  0  0
 27 28  2  0  0  0
 27 31  1  0  0  0
 27 29  1  0  0  0
 25 26  1  0  0  0
 32 33  1  0  0  0
 32 31  1  0  0  0
 29 30  1  0  0  0
 20 21  1  0  0  0
 20  2  1  0  0  0
  1  2  2  0  0  0
  2  3  1  0  0  0
  3  4  1  0  0  0
  4  5  1  0  0  0
  5  6  1  0  0  0
  6  7  1  0  0  0
  7  8  1  0  0  0
  8  9  1  0  0  0
  9 10  1  0  0  0
 10 11  2  0  0  0
 11 12  1  0  0  0
 12 13  1  0  0  0
 13 14  1  0  0  0
 14 15  1  0  0  0
 15 16  1  0  0  0
 16 17  1  0  0  0
 17 18  1  0  0  0
 18 19  1  0  0  0
M  CHG 1  28  -1
M  END
> <minimizedAffinity>
-8.10373

> <CNNscore>
0.6723426580

> <CNNaffinity>
6.7643709183

> <CNN_VS>
4.5479750633

> <CNNaffinity_variance>
0.2905643880

$$$$
/media/chris/experiments/cd1a-new-docking/inputs/ligands/4x6c_ligand.pdb


 37 36  0  0  0  0  0  0  0  0999 V2000
  -42.1365   58.1412   66.5323 O   0  0  0  0  0  0  0  0  0  0  0  0
  -42.5728   58.9711   65.7949 C   0  0  0  0  0  0  0  0  0  0  0  0
  -44.0007   59.0542   65.3644 C   0  0  0  0  0  0  0  0  0  0  0  0
  -44.5850   57.7045   64.9920 C   0  0  0  0  0  0  0  0  0  0  0  0
  -45.7672   57.3164   65.8535 C   0  0  0  0  0  0  0  0  0  0  0  0
  -46.5511   58.4843   66.4040 C   0  0  0  0  0  0  0  0  0  0  0  0
  -47.6036   59.0111   65.4622 C   0  0  0  0  0  0  0  0  0  0  0  0
  -48.5896   57.9504   65.0521 C   0  0  0  0  0  0  0  0  0  0  0  0
  -50.0272   58.2573   65.3513 C   0  0  0  0  0  0  0  0  0  0  0  0
  -50.3709   59.6747   65.1681 C   0  0  0  0  0  0  0  0  0  0  0  0
  -50.8443   60.2593   64.0897 C   0  0  0  0  0  0  0  0  0  0  0  0
  -51.1763   59.6360   62.7837 C   0  0  0  0  0  0  0  0  0  0  0  0
  -50.0173   59.4816   61.8202 C   0  0  0  0  0  0  0  0  0  0  0  0
  -49.6726   58.0425   61.5513 C   0  0  0  0  0  0  0  0  0  0  0  0
  -50.5597   57.3609   60.5412 C   0  0  0  0  0  0  0  0  0  0  0  0
  -49.9524   57.3372   59.1558 C   0  0  0  0  0  0  0  0  0  0  0  0
  -48.5033   56.9403   59.1063 C   0  0  0  0  0  0  0  0  0  0  0  0
  -47.8819   57.1715   57.7874 C   0  0  0  0  0  0  0  0  0  0  0  0
  -46.8233   56.2153   57.4690 C   0  0  0  0  0  0  0  0  0  0  0  0
  -41.8362   59.9373   65.2466 O   0  0  0  0  0  0  0  0  0  0  0  0
  -42.3110   60.5200   64.0125 C   0  0  0  0  0  0  0  0  0  0  0  0
  -41.3395   61.6150   63.6366 C   0  0  0  0  0  0  0  0  0  0  0  0
  -40.5646   61.9770   64.7797 O   0  0  0  0  0  0  0  0  0  0  0  0
  -40.0310   61.2178   65.0621 H   0  0  0  0  0  0  0  0  0  0  0  0
  -40.3945   61.2719   62.5106 C   0  0  0  0  0  0  0  0  0  0  0  0
  -39.5428   60.1906   62.9398 O   0  0  0  0  0  0  0  0  0  0  0  0
  -38.0172   60.1655   62.4910 P   0  0  0  0  0  0  0  0  0  0  0  0
  -37.3329   59.1687   63.3388 O   0  0  0  0  0  0  0  0  0  0  0  0
  -38.0058   59.9922   61.0250 O   0  0  0  0  0  0  0  0  0  0  0  0
  -38.3860   59.1291   60.7986 H   0  0  0  0  0  0  0  0  0  0  0  0
  -37.3866   61.5882   62.7999 O   0  0  0  0  0  0  0  0  0  0  0  0
  -37.2400   62.0253   64.1715 C   0  0  0  0  0  0  0  0  0  0  0  0
  -36.0107   62.9050   64.1965 C   0  0  0  0  0  0  0  0  0  0  0  0
  -34.7866   62.3251   64.8768 N   0  0  0  0  0  0  0  0  0  0  0  0
  -33.5624   62.5205   64.0414 C   0  0  0  0  0  0  0  0  0  0  0  0
  -34.9846   60.8599   65.0988 C   0  0  0  0  0  0  0  0  0  0  0  0
  -34.5788   63.0007   66.1959 C   0  0  0  0  0  0  0  0  0  0  0  0
 34 33  1  0  0  0
 34 35  1  0  0  0
 34 36  1  0  0  0
 34 37  1  0  0  0
 22 23  1  0  0  0
 22 25  1  0  0  0
 22 21  1  0  0  0
 23 24  1  0  0  0
 27 26  1  0  0  0
 27 28  2  0  0  0
 27 31  1  0  0  0
 27 29  1  0  0  0
 25 26  1  0  0  0
 32 33  1  0  0  0
 32 31  1  0  0  0
 29 30  1  0  0  0
 20 21  1  0  0  0
 20  2  1  0  0  0
  1  2  2  0  0  0
  2  3  1  0  0  0
  3  4  1  0  0  0
  4  5  1  0  0  0
  5  6  1  0  0  0
  6  7  1  0  0  0
  7  8  1  0  0  0
  8  9  1  0  0  0
  9 10  1  0  0  0
 10 11  2  0  0  0
 11 12  1  0  0  0
 12 13  1  0  0  0
 13 14  1  0  0  0
 14 15  1  0  0  0
 15 16  1  0  0  0
 16 17  1  0  0  0
 17 18  1  0  0  0
 18 19  1  0  0  0
M  CHG 1  28  -1
M  END
> <minimizedAffinity>
-7.95064

> <CNNscore>
0.6485113502

> <CNNaffinity>
6.6002302170

> <CNN_VS>
4.2803239822

> <CNNaffinity_variance>
0.4103992581

$$$$
/media/chris/experiments/cd1a-new-docking/inputs/ligands/4x6c_ligand.pdb


 37 36  0  0  0  0  0  0  0  0999 V2000
  -41.8253   58.3068   65.9553 O   0  0  0  0  0  0  0  0  0  0  0  0
  -42.4671   59.1266   65.3730 C   0  0  0  0  0  0  0  0  0  0  0  0
  -43.8080   58.8760   64.7646 C   0  0  0  0  0  0  0  0  0  0  0  0
  -44.3834   57.5233   65.1395 C   0  0  0  0  0  0  0  0  0  0  0  0
  -45.7179   57.6259   65.8460 C   0  0  0  0  0  0  0  0  0  0  0  0
  -46.1549   59.0381   66.1567 C   0  0  0  0  0  0  0  0  0  0  0  0
  -47.6350   59.2698   65.9890 C   0  0  0  0  0  0  0  0  0  0  0  0
  -48.2676   58.2814   65.0466 C   0  0  0  0  0  0  0  0  0  0  0  0
  -49.7648   58.2063   65.1019 C   0  0  0  0  0  0  0  0  0  0  0  0
  -50.4093   59.5197   65.2443 C   0  0  0  0  0  0  0  0  0  0  0  0
  -50.9950   60.2386   64.3120 C   0  0  0  0  0  0  0  0  0  0  0  0
  -51.1776   59.9008   62.8778 C   0  0  0  0  0  0  0  0  0  0  0  0
  -50.0036   60.2234   61.9762 C   0  0  0  0  0  0  0  0  0  0  0  0
  -49.7270   59.1389   60.9715 C   0  0  0  0  0  0  0  0  0  0  0  0
  -50.0650   57.7465   61.4393 C   0  0  0  0  0  0  0  0  0  0  0  0
  -50.0463   56.7345   60.3148 C   0  0  0  0  0  0  0  0  0  0  0  0
  -49.6807   57.2918   58.9673 C   0  0  0  0  0  0  0  0  0  0  0  0
  -48.4171   56.7445   58.4352 C   0  0  0  0  0  0  0  0  0  0  0  0
  -47.8869   55.6352   59.2256 C   0  0  0  0  0  0  0  0  0  0  0  0
  -42.0656   60.3829   65.1796 O   0  0  0  0  0  0  0  0  0  0  0  0
  -41.0693   60.9119   66.0828 C   0  0  0  0  0  0  0  0  0  0  0  0
  -39.7745   61.0055   65.3089 C   0  0  0  0  0  0  0  0  0  0  0  0
  -39.0744   59.7646   65.4003 O   0  0  0  0  0  0  0  0  0  0  0  0
  -39.5992   59.0657   64.9795 H   0  0  0  0  0  0  0  0  0  0  0  0
  -39.9266   61.3593   63.8494 C   0  0  0  0  0  0  0  0  0  0  0  0
  -39.5512   60.2140   63.0580 O   0  0  0  0  0  0  0  0  0  0  0  0
  -38.8330   60.4286   61.6553 P   0  0  0  0  0  0  0  0  0  0  0  0
  -39.8912   60.7188   60.6670 O   0  0  0  0  0  0  0  0  0  0  0  0
  -37.7597   61.4189   61.8718 O   0  0  0  0  0  0  0  0  0  0  0  0
  -38.1510   62.2689   62.1272 H   0  0  0  0  0  0  0  0  0  0  0  0
  -38.1361   59.0647   61.2419 O   0  0  0  0  0  0  0  0  0  0  0  0
  -37.9323   58.0331   62.2360 C   0  0  0  0  0  0  0  0  0  0  0  0
  -36.4674   57.6675   62.1590 C   0  0  0  0  0  0  0  0  0  0  0  0
  -35.6369   57.9683   63.3908 N   0  0  0  0  0  0  0  0  0  0  0  0
  -35.7149   59.4166   63.7530 C   0  0  0  0  0  0  0  0  0  0  0  0
  -34.2074   57.6178   63.1281 C   0  0  0  0  0  0  0  0  0  0  0  0
  -36.1399   57.1587   64.5445 C   0  0  0  0  0  0  0  0  0  0  0  0
 34 33  1  0  0  0
 34 35  1  0  0  0
 34 36  1  0  0  0
 34 37  1  0  0  0
 22 23  1  0  0  0
 22 25  1  0  0  0
 22 21  1  0  0  0
 23 24  1  0  0  0
 27 26  1  0  0  0
 27 28  2  0  0  0
 27 31  1  0  0  0
 27 29  1  0  0  0
 25 26  1  0  0  0
 32 33  1  0  0  0
 32 31  1  0  0  0
 29 30  1  0  0  0
 20 21  1  0  0  0
 20  2  1  0  0  0
  1  2  2  0  0  0
  2  3  1  0  0  0
  3  4  1  0  0  0
  4  5  1  0  0  0
  5  6  1  0  0  0
  6  7  1  0  0  0
  7  8  1  0  0  0
  8  9  1  0  0  0
  9 10  1  0  0  0
 10 11  2  0  0  0
 11 12  1  0  0  0
 12 13  1  0  0  0
 13 14  1  0  0  0
 14 15  1  0  0  0
 15 16  1  0  0  0
 16 17  1  0  0  0
 17 18  1  0  0  0
 18 19  1  0  0  0
M  CHG 1  28  -1
M  END
> <minimizedAffinity>
-8.33741

> <CNNscore>
0.6450825930

> <CNNaffinity>
6.6776552200

> <CNN_VS>
4.3076391220

> <CNNaffinity_variance>
0.3854503632

$$$$
/media/chris/experiments/cd1a-new-docking/inputs/ligands/4x6c_ligand.pdb


 37 36  0  0  0  0  0  0  0  0999 V2000
  -42.0166   59.4851   67.0321 O   0  0  0  0  0  0  0  0  0  0  0  0
  -42.1476   59.5508   65.8482 C   0  0  0  0  0  0  0  0  0  0  0  0
  -43.4132   59.2395   65.1184 C   0  0  0  0  0  0  0  0  0  0  0  0
  -43.7547   57.7615   65.1317 C   0  0  0  0  0  0  0  0  0  0  0  0
  -45.2081   57.4955   65.4594 C   0  0  0  0  0  0  0  0  0  0  0  0
  -46.1561   58.5933   65.0376 C   0  0  0  0  0  0  0  0  0  0  0  0
  -47.4536   58.0900   64.4583 C   0  0  0  0  0  0  0  0  0  0  0  0
  -48.5524   58.0220   65.4846 C   0  0  0  0  0  0  0  0  0  0  0  0
  -49.9461   58.1540   64.9457 C   0  0  0  0  0  0  0  0  0  0  0  0
  -50.4875   59.5161   65.0572 C   0  0  0  0  0  0  0  0  0  0  0  0
  -50.9964   60.2647   64.1036 C   0  0  0  0  0  0  0  0  0  0  0  0
  -51.1776   59.9208   62.6707 C   0  0  0  0  0  0  0  0  0  0  0  0
  -50.0081   60.2526   61.7664 C   0  0  0  0  0  0  0  0  0  0  0  0
  -49.7299   59.1734   60.7564 C   0  0  0  0  0  0  0  0  0  0  0  0
  -49.9107   57.7682   61.2706 C   0  0  0  0  0  0  0  0  0  0  0  0
  -49.2785   56.7323   60.3673 C   0  0  0  0  0  0  0  0  0  0  0  0
  -49.0344   57.1875   58.9556 C   0  0  0  0  0  0  0  0  0  0  0  0
  -47.9844   56.4107   58.2676 C   0  0  0  0  0  0  0  0  0  0  0  0
  -47.0487   57.2416   57.5124 C   0  0  0  0  0  0  0  0  0  0  0  0
  -41.1717   59.9056   65.0124 O   0  0  0  0  0  0  0  0  0  0  0  0
  -39.8320   59.9891   65.5474 C   0  0  0  0  0  0  0  0  0  0  0  0
  -39.2889   61.3488   65.1724 C   0  0  0  0  0  0  0  0  0  0  0  0
  -40.0436   62.3626   65.8363 O   0  0  0  0  0  0  0  0  0  0  0  0
  -39.9306   62.2737   66.7956 H   0  0  0  0  0  0  0  0  0  0  0  0
  -37.8276   61.5616   65.4858 C   0  0  0  0  0  0  0  0  0  0  0  0
  -37.2025   60.2736   65.6561 O   0  0  0  0  0  0  0  0  0  0  0  0
  -35.9670   59.8717   64.7388 P   0  0  0  0  0  0  0  0  0  0  0  0
  -35.5946   58.4880   65.0961 O   0  0  0  0  0  0  0  0  0  0  0  0
  -36.3514   60.1764   63.3465 O   0  0  0  0  0  0  0  0  0  0  0  0
  -37.0973   59.6135   63.0865 H   0  0  0  0  0  0  0  0  0  0  0  0
  -34.7483   60.8184   65.1067 O   0  0  0  0  0  0  0  0  0  0  0  0
  -34.3117   61.8251   64.1634 C   0  0  0  0  0  0  0  0  0  0  0  0
  -33.8848   63.0137   64.9944 C   0  0  0  0  0  0  0  0  0  0  0  0
  -33.1770   64.1297   64.2520 N   0  0  0  0  0  0  0  0  0  0  0  0
  -33.8968   64.4782   62.9890 C   0  0  0  0  0  0  0  0  0  0  0  0
  -31.7878   63.6982   63.9066 C   0  0  0  0  0  0  0  0  0  0  0  0
  -33.1145   65.3478   65.1191 C   0  0  0  0  0  0  0  0  0  0  0  0
 34 33  1  0  0  0
 34 35  1  0  0  0
 34 36  1  0  0  0
 34 37  1  0  0  0
 22 23  1  0  0  0
 22 25  1  0  0  0
 22 21  1  0  0  0
 23 24  1  0  0  0
 27 26  1  0  0  0
 27 28  2  0  0  0
 27 31  1  0  0  0
 27 29  1  0  0  0
 25 26  1  0  0  0
 32 33  1  0  0  0
 32 31  1  0  0  0
 29 30  1  0  0  0
 20 21  1  0  0  0
 20  2  1  0  0  0
  1  2  2  0  0  0
  2  3  1  0  0  0
  3  4  1  0  0  0
  4  5  1  0  0  0
  5  6  1  0  0  0
  6  7  1  0  0  0
  7  8  1  0  0  0
  8  9  1  0  0  0
  9 10  1  0  0  0
 10 11  2  0  0  0
 11 12  1  0  0  0
 12 13  1  0  0  0
 13 14  1  0  0  0
 14 15  1  0  0  0
 15 16  1  0  0  0
 16 17  1  0  0  0
 17 18  1  0  0  0
 18 19  1  0  0  0
M  CHG 1  28  -1
M  END
> <minimizedAffinity>
-7.78545

> <CNNscore>
0.6144675612

> <CNNaffinity>
6.2043085098

> <CNN_VS>
3.8123462200

> <CNNaffinity_variance>
0.2323368788

$$$$
/media/chris/experiments/cd1a-new-docking/inputs/ligands/4x6c_ligand.pdb


 37 36  0  0  0  0  0  0  0  0999 V2000
  -41.7726   61.3698   66.6937 O   0  0  0  0  0  0  0  0  0  0  0  0
  -41.0208   61.0848   65.8125 C   0  0  0  0  0  0  0  0  0  0  0  0
  -41.3006   60.0644   64.7582 C   0  0  0  0  0  0  0  0  0  0  0  0
  -42.7529   60.0509   64.3198 C   0  0  0  0  0  0  0  0  0  0  0  0
  -43.5910   59.0518   65.0879 C   0  0  0  0  0  0  0  0  0  0  0  0
  -45.0062   59.5023   65.3633 C   0  0  0  0  0  0  0  0  0  0  0  0
  -45.6928   58.7235   66.4563 C   0  0  0  0  0  0  0  0  0  0  0  0
  -46.5592   57.6178   65.9159 C   0  0  0  0  0  0  0  0  0  0  0  0
  -47.4069   57.9833   64.7335 C   0  0  0  0  0  0  0  0  0  0  0  0
  -48.8491   57.9394   65.0145 C   0  0  0  0  0  0  0  0  0  0  0  0
  -49.8397   58.2616   64.2121 C   0  0  0  0  0  0  0  0  0  0  0  0
  -49.7604   58.7318   62.8061 C   0  0  0  0  0  0  0  0  0  0  0  0
  -50.7341   58.0822   61.8442 C   0  0  0  0  0  0  0  0  0  0  0  0
  -50.0491   57.2346   60.8077 C   0  0  0  0  0  0  0  0  0  0  0  0
  -50.1593   57.7537   59.3970 C   0  0  0  0  0  0  0  0  0  0  0  0
  -49.3792   56.9173   58.4067 C   0  0  0  0  0  0  0  0  0  0  0  0
  -47.8852   56.9848   58.5592 C   0  0  0  0  0  0  0  0  0  0  0  0
  -47.2205   55.6826   58.3549 C   0  0  0  0  0  0  0  0  0  0  0  0
  -47.0550   55.3304   56.9460 C   0  0  0  0  0  0  0  0  0  0  0  0
  -39.8182   61.6380   65.6556 O   0  0  0  0  0  0  0  0  0  0  0  0
  -39.0494   61.2463   64.4964 C   0  0  0  0  0  0  0  0  0  0  0  0
  -37.5914   61.4350   64.8471 C   0  0  0  0  0  0  0  0  0  0  0  0
  -37.4702   62.4379   65.8559 O   0  0  0  0  0  0  0  0  0  0  0  0
  -37.9135   62.1379   66.6649 H   0  0  0  0  0  0  0  0  0  0  0  0
  -36.8832   60.1909   65.3258 C   0  0  0  0  0  0  0  0  0  0  0  0
  -35.6873   60.0126   64.5404 O   0  0  0  0  0  0  0  0  0  0  0  0
  -34.2777   60.4278   65.1488 P   0  0  0  0  0  0  0  0  0  0  0  0
  -34.5461   61.3321   66.2850 O   0  0  0  0  0  0  0  0  0  0  0  0
  -33.5295   59.1775   65.3857 O   0  0  0  0  0  0  0  0  0  0  0  0
  -33.9878   58.6488   66.0575 H   0  0  0  0  0  0  0  0  0  0  0  0
  -33.4843   61.2473   64.0461 O   0  0  0  0  0  0  0  0  0  0  0  0
  -33.7889   62.6460   63.8344 C   0  0  0  0  0  0  0  0  0  0  0  0
  -32.5795   63.4113   64.3213 C   0  0  0  0  0  0  0  0  0  0  0  0
  -32.8475   64.7815   64.9113 N   0  0  0  0  0  0  0  0  0  0  0  0
  -32.8313   65.8369   63.8526 C   0  0  0  0  0  0  0  0  0  0  0  0
  -31.7960   65.1046   65.9239 C   0  0  0  0  0  0  0  0  0  0  0  0
  -34.1895   64.7885   65.5735 C   0  0  0  0  0  0  0  0  0  0  0  0
 34 33  1  0  0  0
 34 35  1  0  0  0
 34 36  1  0  0  0
 34 37  1  0  0  0
 22 23  1  0  0  0
 22 25  1  0  0  0
 22 21  1  0  0  0
 23 24  1  0  0  0
 27 26  1  0  0  0
 27 28  2  0  0  0
 27 31  1  0  0  0
 27 29  1  0  0  0
 25 26  1  0  0  0
 32 33  1  0  0  0
 32 31  1  0  0  0
 29 30  1  0  0  0
 20 21  1  0  0  0
 20  2  1  0  0  0
  1  2  2  0  0  0
  2  3  1  0  0  0
  3  4  1  0  0  0
  4  5  1  0  0  0
  5  6  1  0  0  0
  6  7  1  0  0  0
  7  8  1  0  0  0
  8  9  1  0  0  0
  9 10  1  0  0  0
 10 11  2  0  0  0
 11 12  1  0  0  0
 12 13  1  0  0  0
 13 14  1  0  0  0
 14 15  1  0  0  0
 15 16  1  0  0  0
 16 17  1  0  0  0
 17 18  1  0  0  0
 18 19  1  0  0  0
M  CHG 1  28  -1
M  END
> <minimizedAffinity>
-7.61893

> <CNNscore>
0.6137089133

> <CNNaffinity>
6.1844291687

> <CNN_VS>
3.7954392433

> <CNNaffinity_variance>
0.6857839823

$$$$
/media/chris/experiments/cd1a-new-docking/inputs/ligands/4x6c_ligand.pdb


 37 36  0  0  0  0  0  0  0  0999 V2000
  -41.8347   58.4073   65.8435 O   0  0  0  0  0  0  0  0  0  0  0  0
  -42.2548   59.4307   65.3971 C   0  0  0  0  0  0  0  0  0  0  0  0
  -43.6870   59.6791   65.0532 C   0  0  0  0  0  0  0  0  0  0  0  0
  -44.4316   58.4130   64.6738 C   0  0  0  0  0  0  0  0  0  0  0  0
  -45.4322   57.9809   65.7238 C   0  0  0  0  0  0  0  0  0  0  0  0
  -46.3878   59.0656   66.1621 C   0  0  0  0  0  0  0  0  0  0  0  0
  -47.4721   59.3656   65.1588 C   0  0  0  0  0  0  0  0  0  0  0  0
  -48.2007   58.1263   64.7131 C   0  0  0  0  0  0  0  0  0  0  0  0
  -49.6614   58.0811   65.0516 C   0  0  0  0  0  0  0  0  0  0  0  0
  -50.2657   59.4125   65.2042 C   0  0  0  0  0  0  0  0  0  0  0  0
  -50.8565   60.1428   64.2843 C   0  0  0  0  0  0  0  0  0  0  0  0
  -51.0871   59.8035   62.8574 C   0  0  0  0  0  0  0  0  0  0  0  0
  -50.0267   60.2897   61.8907 C   0  0  0  0  0  0  0  0  0  0  0  0
  -49.6433   59.2477   60.8761 C   0  0  0  0  0  0  0  0  0  0  0  0
  -49.8058   57.8240   61.3437 C   0  0  0  0  0  0  0  0  0  0  0  0
  -50.1537   56.8775   60.2160 C   0  0  0  0  0  0  0  0  0  0  0  0
  -49.1235   56.7863   59.1251 C   0  0  0  0  0  0  0  0  0  0  0  0
  -48.1196   55.7298   59.3603 C   0  0  0  0  0  0  0  0  0  0  0  0
  -46.9667   55.8155   58.4661 C   0  0  0  0  0  0  0  0  0  0  0  0
  -41.4942   60.4938   65.1364 O   0  0  0  0  0  0  0  0  0  0  0  0
  -40.3644   60.3065   64.2552 C   0  0  0  0  0  0  0  0  0  0  0  0
  -39.2900   61.2718   64.7005 C   0  0  0  0  0  0  0  0  0  0  0  0
  -39.7164   61.9456   65.8848 O   0  0  0  0  0  0  0  0  0  0  0  0
  -39.8251   61.3014   66.6018 H   0  0  0  0  0  0  0  0  0  0  0  0
  -37.9416   60.6481   64.9675 C   0  0  0  0  0  0  0  0  0  0  0  0
  -37.4196   61.1921   66.1965 O   0  0  0  0  0  0  0  0  0  0  0  0
  -36.0248   61.9561   66.1886 P   0  0  0  0  0  0  0  0  0  0  0  0
  -35.7399   62.3517   67.5825 O   0  0  0  0  0  0  0  0  0  0  0  0
  -35.0661   61.0881   65.4768 O   0  0  0  0  0  0  0  0  0  0  0  0
  -34.9408   60.2666   65.9771 H   0  0  0  0  0  0  0  0  0  0  0  0
  -36.1892   63.2783   65.3272 O   0  0  0  0  0  0  0  0  0  0  0  0
  -35.4664   63.4173   64.0813 C   0  0  0  0  0  0  0  0  0  0  0  0
  -34.7954   64.7706   64.1408 C   0  0  0  0  0  0  0  0  0  0  0  0
  -33.2892   64.7789   63.9709 N   0  0  0  0  0  0  0  0  0  0  0  0
  -32.7455   63.3874   63.9145 C   0  0  0  0  0  0  0  0  0  0  0  0
  -32.6596   65.4914   65.1247 C   0  0  0  0  0  0  0  0  0  0  0  0
  -32.9318   65.4842   62.7004 C   0  0  0  0  0  0  0  0  0  0  0  0
 34 33  1  0  0  0
 34 35  1  0  0  0
 34 36  1  0  0  0
 34 37  1  0  0  0
 22 23  1  0  0  0
 22 25  1  0  0  0
 22 21  1  0  0  0
 23 24  1  0  0  0
 27 26  1  0  0  0
 27 28  2  0  0  0
 27 31  1  0  0  0
 27 29  1  0  0  0
 25 26  1  0  0  0
 32 33  1  0  0  0
 32 31  1  0  0  0
 29 30  1  0  0  0
 20 21  1  0  0  0
 20  2  1  0  0  0
  1  2  2  0  0  0
  2  3  1  0  0  0
  3  4  1  0  0  0
  4  5  1  0  0  0
  5  6  1  0  0  0
  6  7  1  0  0  0
  7  8  1  0  0  0
  8  9  1  0  0  0
  9 10  1  0  0  0
 10 11  2  0  0  0
 11 12  1  0  0  0
 12 13  1  0  0  0
 13 14  1  0  0  0
 14 15  1  0  0  0
 15 16  1  0  0  0
 16 17  1  0  0  0
 17 18  1  0  0  0
 18 19  1  0  0  0
M  CHG 1  28  -1
M  END
> <minimizedAffinity>
-8.15711

> <CNNscore>
0.6130715609

> <CNNaffinity>
6.2295937538

> <CNN_VS>
3.8191866875

> <CNNaffinity_variance>
0.3026304245

$$$$
/media/chris/experiments/cd1a-new-docking/inputs/ligands/4x6c_ligand.pdb


 37 36  0  0  0  0  0  0  0  0999 V2000
  -40.3526   61.2265   65.8309 O   0  0  0  0  0  0  0  0  0  0  0  0
  -40.9576   61.1763   64.8040 C   0  0  0  0  0  0  0  0  0  0  0  0
  -42.2493   60.4499   64.6175 C   0  0  0  0  0  0  0  0  0  0  0  0
  -42.2714   59.0978   65.3051 C   0  0  0  0  0  0  0  0  0  0  0  0
  -43.6658   58.6584   65.6964 C   0  0  0  0  0  0  0  0  0  0  0  0
  -43.9160   57.1749   65.5608 C   0  0  0  0  0  0  0  0  0  0  0  0
  -45.3743   56.8096   65.4505 C   0  0  0  0  0  0  0  0  0  0  0  0
  -46.2339   57.5806   66.4159 C   0  0  0  0  0  0  0  0  0  0  0  0
  -47.3614   58.3538   65.7985 C   0  0  0  0  0  0  0  0  0  0  0  0
  -47.2936   59.7975   66.0669 C   0  0  0  0  0  0  0  0  0  0  0  0
  -47.8574   60.7734   65.3897 C   0  0  0  0  0  0  0  0  0  0  0  0
  -48.7277   60.6698   64.1912 C   0  0  0  0  0  0  0  0  0  0  0  0
  -50.1643   60.2708   64.4598 C   0  0  0  0  0  0  0  0  0  0  0  0
  -50.7963   59.5566   63.2968 C   0  0  0  0  0  0  0  0  0  0  0  0
  -50.3206   60.0156   61.9423 C   0  0  0  0  0  0  0  0  0  0  0  0
  -49.6977   58.8979   61.1350 C   0  0  0  0  0  0  0  0  0  0  0  0
  -50.5994   57.7226   60.8796 C   0  0  0  0  0  0  0  0  0  0  0  0
  -49.9278   56.6189   60.1654 C   0  0  0  0  0  0  0  0  0  0  0  0
  -49.3832   57.0139   58.8679 C   0  0  0  0  0  0  0  0  0  0  0  0
  -40.5534   61.7598   63.6757 O   0  0  0  0  0  0  0  0  0  0  0  0
  -41.3865   61.5999   62.5059 C   0  0  0  0  0  0  0  0  0  0  0  0
  -40.5868   60.8084   61.4969 C   0  0  0  0  0  0  0  0  0  0  0  0
  -40.8266   61.3256   60.1880 O   0  0  0  0  0  0  0  0  0  0  0  0
  -40.5078   62.2404   60.1385 H   0  0  0  0  0  0  0  0  0  0  0  0
  -39.0964   60.7902   61.7354 C   0  0  0  0  0  0  0  0  0  0  0  0
  -38.7366   59.5105   62.2938 O   0  0  0  0  0  0  0  0  0  0  0  0
  -37.7958   59.4478   63.5746 P   0  0  0  0  0  0  0  0  0  0  0  0
  -37.2556   60.8065   63.7819 O   0  0  0  0  0  0  0  0  0  0  0  0
  -38.5819   58.8142   64.6516 O   0  0  0  0  0  0  0  0  0  0  0  0
  -39.3366   59.3804   64.8769 H   0  0  0  0  0  0  0  0  0  0  0  0
  -36.5807   58.4809   63.2499 O   0  0  0  0  0  0  0  0  0  0  0  0
  -35.3672   58.5656   64.0335 C   0  0  0  0  0  0  0  0  0  0  0  0
  -34.2987   59.0673   63.0891 C   0  0  0  0  0  0  0  0  0  0  0  0
  -32.8725   58.6794   63.4254 N   0  0  0  0  0  0  0  0  0  0  0  0
  -32.4230   57.5138   62.6043 C   0  0  0  0  0  0  0  0  0  0  0  0
  -32.7826   58.3085   64.8710 C   0  0  0  0  0  0  0  0  0  0  0  0
  -31.9614   59.8353   63.1546 C   0  0  0  0  0  0  0  0  0  0  0  0
 34 33  1  0  0  0
 34 35  1  0  0  0
 34 36  1  0  0  0
 34 37  1  0  0  0
 22 23  1  0  0  0
 22 25  1  0  0  0
 22 21  1  0  0  0
 23 24  1  0  0  0
 27 26  1  0  0  0
 27 28  2  0  0  0
 27 31  1  0  0  0
 27 29  1  0  0  0
 25 26  1  0  0  0
 32 33  1  0  0  0
 32 31  1  0  0  0
 29 30  1  0  0  0
 20 21  1  0  0  0
 20  2  1  0  0  0
  1  2  2  0  0  0
  2  3  1  0  0  0
  3  4  1  0  0  0
  4  5  1  0  0  0
  5  6  1  0  0  0
  6  7  1  0  0  0
  7  8  1  0  0  0
  8  9  1  0  0  0
  9 10  1  0  0  0
 10 11  2  0  0  0
 11 12  1  0  0  0
 12 13  1  0  0  0
 13 14  1  0  0  0
 14 15  1  0  0  0
 15 16  1  0  0  0
 16 17  1  0  0  0
 17 18  1  0  0  0
 18 19  1  0  0  0
M  CHG 1  28  -1
M  END
> <minimizedAffinity>
-7.52241

> <CNNscore>
0.6122891307

> <CNNaffinity>
6.4266176224

> <CNN_VS>
3.9349482059

> <CNNaffinity_variance>
0.5037358999

$$$$
