/media/chris/experiments/cd1a-new-docking/inputs/ligands/4x6c_ligand.pdb


 37 36  0  0  0  0  0  0  0  0999 V2000
  -41.1527   61.9866   64.2076 O   0  0  0  0  0  0  0  0  0  0  0  0
  -40.9974   61.4801   65.2763 C   0  0  0  0  0  0  0  0  0  0  0  0
  -41.9609   60.5316   65.9114 C   0  0  0  0  0  0  0  0  0  0  0  0
  -42.2319   59.3060   65.0594 C   0  0  0  0  0  0  0  0  0  0  0  0
  -43.6798   59.1928   64.6337 C   0  0  0  0  0  0  0  0  0  0  0  0
  -44.6250   58.7729   65.7346 C   0  0  0  0  0  0  0  0  0  0  0  0
  -45.2400   57.4127   65.5252 C   0  0  0  0  0  0  0  0  0  0  0  0
  -46.7407   57.4376   65.6384 C   0  0  0  0  0  0  0  0  0  0  0  0
  -47.4260   58.5326   64.8759 C   0  0  0  0  0  0  0  0  0  0  0  0
  -48.8910   58.4937   64.9903 C   0  0  0  0  0  0  0  0  0  0  0  0
  -49.7687   58.2228   64.0496 C   0  0  0  0  0  0  0  0  0  0  0  0
  -49.5080   57.8634   62.6328 C   0  0  0  0  0  0  0  0  0  0  0  0
  -50.6054   58.2278   61.6539 C   0  0  0  0  0  0  0  0  0  0  0  0
  -50.7696   57.2094   60.5594 C   0  0  0  0  0  0  0  0  0  0  0  0
  -49.6448   57.1761   59.5565 C   0  0  0  0  0  0  0  0  0  0  0  0
  -48.7509   55.9673   59.7251 C   0  0  0  0  0  0  0  0  0  0  0  0
  -47.9053   55.6332   58.5279 C   0  0  0  0  0  0  0  0  0  0  0  0
  -48.2417   56.4367   57.3361 C   0  0  0  0  0  0  0  0  0  0  0  0
  -47.1075   56.6461   56.4384 C   0  0  0  0  0  0  0  0  0  0  0  0
  -39.9385   61.7015   66.0552 O   0  0  0  0  0  0  0  0  0  0  0  0
  -38.7334   60.9565   65.7711 C   0  0  0  0  0  0  0  0  0  0  0  0
  -37.8799   61.8203   64.8713 C   0  0  0  0  0  0  0  0  0  0  0  0
  -36.9088   62.5119   65.6568 O   0  0  0  0  0  0  0  0  0  0  0  0
  -36.3122   61.8698   66.0722 H   0  0  0  0  0  0  0  0  0  0  0  0
  -37.1609   61.0800   63.7697 C   0  0  0  0  0  0  0  0  0  0  0  0
  -37.8141   61.3726   62.5180 O   0  0  0  0  0  0  0  0  0  0  0  0
  -38.7216   60.2644   61.8267 P   0  0  0  0  0  0  0  0  0  0  0  0
  -39.1847   59.3560   62.8950 O   0  0  0  0  0  0  0  0  0  0  0  0
  -39.7200   60.9797   61.0077 O   0  0  0  0  0  0  0  0  0  0  0  0
  -40.2966   61.5037   61.5855 H   0  0  0  0  0  0  0  0  0  0  0  0
  -37.8112   59.4284   60.8321 O   0  0  0  0  0  0  0  0  0  0  0  0
  -37.2780   58.1501   61.2506 C   0  0  0  0  0  0  0  0  0  0  0  0
  -35.7945   58.3649   61.4479 C   0  0  0  0  0  0  0  0  0  0  0  0
  -35.1933   57.7687   62.7051 N   0  0  0  0  0  0  0  0  0  0  0  0
  -34.3849   58.7825   63.4493 C   0  0  0  0  0  0  0  0  0  0  0  0
  -34.3043   56.6233   62.3399 C   0  0  0  0  0  0  0  0  0  0  0  0
  -36.2876   57.2784   63.6003 C   0  0  0  0  0  0  0  0  0  0  0  0
 34 33  1  0  0  0
 34 35  1  0  0  0
 34 36  1  0  0  0
 34 37  1  0  0  0
 22 23  1  0  0  0
 22 25  1  0  0  0
 22 21  1  0  0  0
 23 24  1  0  0  0
 27 26  1  0  0  0
 27 28  2  0  0  0
 27 31  1  0  0  0
 27 29  1  0  0  0
 25 26  1  0  0  0
 32 33  1  0  0  0
 32 31  1  0  0  0
 29 30  1  0  0  0
 20 21  1  0  0  0
 20  2  1  0  0  0
  1  2  2  0  0  0
  2  3  1  0  0  0
  3  4  1  0  0  0
  4  5  1  0  0  0
  5  6  1  0  0  0
  6  7  1  0  0  0
  7  8  1  0  0  0
  8  9  1  0  0  0
  9 10  1  0  0  0
 10 11  2  0  0  0
 11 12  1  0  0  0
 12 13  1  0  0  0
 13 14  1  0  0  0
 14 15  1  0  0  0
 15 16  1  0  0  0
 16 17  1  0  0  0
 17 18  1  0  0  0
 18 19  1  0  0  0
M  CHG 1  28  -1
M  END
> <minimizedAffinity>
-7.97751

> <CNNscore>
0.8777957559

> <CNNaffinity>
6.9843244553

> <CNN_VS>
6.1308102608

> <CNNaffinity_variance>
0.4573062360

$$$$
/media/chris/experiments/cd1a-new-docking/inputs/ligands/4x6c_ligand.pdb


 37 36  0  0  0  0  0  0  0  0999 V2000
  -42.2744   57.8668   65.7902 O   0  0  0  0  0  0  0  0  0  0  0  0
  -43.0673   58.7378   65.6023 C   0  0  0  0  0  0  0  0  0  0  0  0
  -44.5461   58.5370   65.5382 C   0  0  0  0  0  0  0  0  0  0  0  0
  -44.9517   57.0827   65.6870 C   0  0  0  0  0  0  0  0  0  0  0  0
  -46.4463   56.9006   65.8403 C   0  0  0  0  0  0  0  0  0  0  0  0
  -47.2706   58.0840   65.3907 C   0  0  0  0  0  0  0  0  0  0  0  0
  -48.4582   57.7126   64.5399 C   0  0  0  0  0  0  0  0  0  0  0  0
  -49.7620   58.1486   65.1525 C   0  0  0  0  0  0  0  0  0  0  0  0
  -50.0211   59.6260   65.1318 C   0  0  0  0  0  0  0  0  0  0  0  0
  -51.0508   60.0235   64.1609 C   0  0  0  0  0  0  0  0  0  0  0  0
  -50.8974   60.2887   62.8823 C   0  0  0  0  0  0  0  0  0  0  0  0
  -49.6486   60.2335   62.0811 C   0  0  0  0  0  0  0  0  0  0  0  0
  -49.6863   59.3175   60.8750 C   0  0  0  0  0  0  0  0  0  0  0  0
  -50.2068   57.9451   61.2035 C   0  0  0  0  0  0  0  0  0  0  0  0
  -50.1083   56.9483   60.0772 C   0  0  0  0  0  0  0  0  0  0  0  0
  -48.6915   56.4713   59.8449 C   0  0  0  0  0  0  0  0  0  0  0  0
  -48.1144   56.8304   58.5041 C   0  0  0  0  0  0  0  0  0  0  0  0
  -47.1786   55.8145   57.9831 C   0  0  0  0  0  0  0  0  0  0  0  0
  -47.5130   55.3536   56.6370 C   0  0  0  0  0  0  0  0  0  0  0  0
  -42.7354   60.0152   65.4152 O   0  0  0  0  0  0  0  0  0  0  0  0
  -41.7610   60.5904   66.3139 C   0  0  0  0  0  0  0  0  0  0  0  0
  -40.7201   61.2762   65.4594 C   0  0  0  0  0  0  0  0  0  0  0  0
  -40.4219   62.5592   66.0104 O   0  0  0  0  0  0  0  0  0  0  0  0
  -40.0298   62.4496   66.8908 H   0  0  0  0  0  0  0  0  0  0  0  0
  -39.4261   60.5164   65.2959 C   0  0  0  0  0  0  0  0  0  0  0  0
  -39.6388   59.4451   64.3547 O   0  0  0  0  0  0  0  0  0  0  0  0
  -38.4162   58.8962   63.4984 P   0  0  0  0  0  0  0  0  0  0  0  0
  -38.5889   57.4338   63.3853 O   0  0  0  0  0  0  0  0  0  0  0  0
  -38.3560   59.7106   62.2687 O   0  0  0  0  0  0  0  0  0  0  0  0
  -39.1604   59.5669   61.7459 H   0  0  0  0  0  0  0  0  0  0  0  0
  -37.0805   59.1714   64.3090 O   0  0  0  0  0  0  0  0  0  0  0  0
  -35.9991   59.9011   63.6831 C   0  0  0  0  0  0  0  0  0  0  0  0
  -35.2354   60.5574   64.8108 C   0  0  0  0  0  0  0  0  0  0  0  0
  -35.3452   62.0664   64.9041 N   0  0  0  0  0  0  0  0  0  0  0  0
  -35.7429   62.4938   66.2804 C   0  0  0  0  0  0  0  0  0  0  0  0
  -36.3752   62.5538   63.9361 C   0  0  0  0  0  0  0  0  0  0  0  0
  -34.0241   62.6865   64.5734 C   0  0  0  0  0  0  0  0  0  0  0  0
 34 33  1  0  0  0
 34 35  1  0  0  0
 34 36  1  0  0  0
 34 37  1  0  0  0
 22 23  1  0  0  0
 22 25  1  0  0  0
 22 21  1  0  0  0
 23 24  1  0  0  0
 27 26  1  0  0  0
 27 28  2  0  0  0
 27 31  1  0  0  0
 27 29  1  0  0  0
 25 26  1  0  0  0
 32 33  1  0  0  0
 32 31  1  0  0  0
 29 30  1  0  0  0
 20 21  1  0  0  0
 20  2  1  0  0  0
  1  2  2  0  0  0
  2  3  1  0  0  0
  3  4  1  0  0  0
  4  5  1  0  0  0
  5  6  1  0  0  0
  6  7  1  0  0  0
  7  8  1  0  0  0
  8  9  1  0  0  0
  9 10  1  0  0  0
 10 11  2  0  0  0
 11 12  1  0  0  0
 12 13  1  0  0  0
 13 14  1  0  0  0
 14 15  1  0  0  0
 15 16  1  0  0  0
 16 17  1  0  0  0
 17 18  1  0  0  0
 18 19  1  0  0  0
M  CHG 1  28  -1
M  END
> <minimizedAffinity>
-8.01114

> <CNNscore>
0.8534651995

> <CNNaffinity>
6.8785796165

> <CNN_VS>
5.8706283569

> <CNNaffinity_variance>
0.5770436525

$$$$
/media/chris/experiments/cd1a-new-docking/inputs/ligands/4x6c_ligand.pdb


 37 36  0  0  0  0  0  0  0  0999 V2000
  -41.8478   60.2343   63.8929 O   0  0  0  0  0  0  0  0  0  0  0  0
  -41.5275   59.8156   64.9629 C   0  0  0  0  0  0  0  0  0  0  0  0
  -42.3622   58.9009   65.7982 C   0  0  0  0  0  0  0  0  0  0  0  0
  -43.7674   59.4257   66.0252 C   0  0  0  0  0  0  0  0  0  0  0  0
  -44.7739   58.8560   65.0491 C   0  0  0  0  0  0  0  0  0  0  0  0
  -45.1746   57.4262   65.3259 C   0  0  0  0  0  0  0  0  0  0  0  0
  -46.6218   57.2622   65.7148 C   0  0  0  0  0  0  0  0  0  0  0  0
  -47.5542   57.9689   64.7680 C   0  0  0  0  0  0  0  0  0  0  0  0
  -48.3916   59.0535   65.3785 C   0  0  0  0  0  0  0  0  0  0  0  0
  -48.2336   60.3553   64.7142 C   0  0  0  0  0  0  0  0  0  0  0  0
  -48.9640   60.8632   63.7461 C   0  0  0  0  0  0  0  0  0  0  0  0
  -50.1520   60.2641   63.0873 C   0  0  0  0  0  0  0  0  0  0  0  0
  -49.8565   59.3306   61.9312 C   0  0  0  0  0  0  0  0  0  0  0  0
  -50.8202   58.1785   61.8534 C   0  0  0  0  0  0  0  0  0  0  0  0
  -50.5158   57.1751   60.7706 C   0  0  0  0  0  0  0  0  0  0  0  0
  -49.0820   57.2510   60.2938 C   0  0  0  0  0  0  0  0  0  0  0  0
  -48.6165   56.0650   59.4959 C   0  0  0  0  0  0  0  0  0  0  0  0
  -47.2547   56.2297   58.9503 C   0  0  0  0  0  0  0  0  0  0  0  0
  -47.2086   57.0538   57.7441 C   0  0  0  0  0  0  0  0  0  0  0  0
  -40.3763   60.1174   65.5632 O   0  0  0  0  0  0  0  0  0  0  0  0
  -39.9335   61.4917   65.5055 C   0  0  0  0  0  0  0  0  0  0  0  0
  -38.5118   61.4783   64.9930 C   0  0  0  0  0  0  0  0  0  0  0  0
  -37.6992   62.3099   65.8216 O   0  0  0  0  0  0  0  0  0  0  0  0
  -37.6736   61.9449   66.7199 H   0  0  0  0  0  0  0  0  0  0  0  0
  -37.8728   60.1129   64.9172 C   0  0  0  0  0  0  0  0  0  0  0  0
  -37.8540   59.6909   63.5386 O   0  0  0  0  0  0  0  0  0  0  0  0
  -37.8143   58.1394   63.1916 P   0  0  0  0  0  0  0  0  0  0  0  0
  -38.8248   57.4795   64.0427 O   0  0  0  0  0  0  0  0  0  0  0  0
  -37.9258   58.0268   61.7239 O   0  0  0  0  0  0  0  0  0  0  0  0
  -38.7897   58.3630   61.4385 H   0  0  0  0  0  0  0  0  0  0  0  0
  -36.3876   57.5771   63.5980 O   0  0  0  0  0  0  0  0  0  0  0  0
  -35.2319   57.9017   62.7901 C   0  0  0  0  0  0  0  0  0  0  0  0
  -34.4502   58.9275   63.5790 C   0  0  0  0  0  0  0  0  0  0  0  0
  -32.9561   58.9691   63.3269 N   0  0  0  0  0  0  0  0  0  0  0  0
  -32.6140   58.3483   62.0106 C   0  0  0  0  0  0  0  0  0  0  0  0
  -32.2454   58.2194   64.4078 C   0  0  0  0  0  0  0  0  0  0  0  0
  -32.4879   60.3904   63.3218 C   0  0  0  0  0  0  0  0  0  0  0  0
 34 33  1  0  0  0
 34 35  1  0  0  0
 34 36  1  0  0  0
 34 37  1  0  0  0
 22 23  1  0  0  0
 22 25  1  0  0  0
 22 21  1  0  0  0
 23 24  1  0  0  0
 27 26  1  0  0  0
 27 28  2  0  0  0
 27 31  1  0  0  0
 27 29  1  0  0  0
 25 26  1  0  0  0
 32 33  1  0  0  0
 32 31  1  0  0  0
 29 30  1  0  0  0
 20 21  1  0  0  0
 20  2  1  0  0  0
  1  2  2  0  0  0
  2  3  1  0  0  0
  3  4  1  0  0  0
  4  5  1  0  0  0
  5  6  1  0  0  0
  6  7  1  0  0  0
  7  8  1  0  0  0
  8  9  1  0  0  0
  9 10  1  0  0  0
 10 11  2  0  0  0
 11 12  1  0  0  0
 12 13  1  0  0  0
 13 14  1  0  0  0
 14 15  1  0  0  0
 15 16  1  0  0  0
 16 17  1  0  0  0
 17 18  1  0  0  0
 18 19  1  0  0  0
M  CHG 1  28  -1
M  END
> <minimizedAffinity>
-7.69893

> <CNNscore>
0.8272324204

> <CNNaffinity>
6.7344727516

> <CNN_VS>
5.5709743500

> <CNNaffinity_variance>
0.9463450313

$$$$
/media/chris/experiments/cd1a-new-docking/inputs/ligands/4x6c_ligand.pdb


 37 36  0  0  0  0  0  0  0  0999 V2000
  -42.3448   57.4391   66.2004 O   0  0  0  0  0  0  0  0  0  0  0  0
  -42.4693   58.4584   65.5935 C   0  0  0  0  0  0  0  0  0  0  0  0
  -43.7667   59.1706   65.3924 C   0  0  0  0  0  0  0  0  0  0  0  0
  -44.7660   58.3618   64.5870 C   0  0  0  0  0  0  0  0  0  0  0  0
  -46.0914   58.1876   65.2966 C   0  0  0  0  0  0  0  0  0  0  0  0
  -46.3851   59.2383   66.3413 C   0  0  0  0  0  0  0  0  0  0  0  0
  -47.6179   60.0568   66.0541 C   0  0  0  0  0  0  0  0  0  0  0  0
  -47.4766   60.8899   64.8087 C   0  0  0  0  0  0  0  0  0  0  0  0
  -48.7073   60.9884   63.9567 C   0  0  0  0  0  0  0  0  0  0  0  0
  -49.8640   60.2766   64.5192 C   0  0  0  0  0  0  0  0  0  0  0  0
  -50.8013   59.6190   63.8730 C   0  0  0  0  0  0  0  0  0  0  0  0
  -50.9233   59.4047   62.4089 C   0  0  0  0  0  0  0  0  0  0  0  0
  -50.0611   58.2981   61.8367 C   0  0  0  0  0  0  0  0  0  0  0  0
  -50.8354   57.3524   60.9602 C   0  0  0  0  0  0  0  0  0  0  0  0
  -50.5169   57.4527   59.4904 C   0  0  0  0  0  0  0  0  0  0  0  0
  -49.0352   57.6052   59.2254 C   0  0  0  0  0  0  0  0  0  0  0  0
  -48.3962   56.4445   58.5152 C   0  0  0  0  0  0  0  0  0  0  0  0
  -47.0821   56.7740   57.9287 C   0  0  0  0  0  0  0  0  0  0  0  0
  -47.0109   56.5278   56.4898 C   0  0  0  0  0  0  0  0  0  0  0  0
  -41.4598   59.0979   65.0029 O   0  0  0  0  0  0  0  0  0  0  0  0
  -40.6362   59.9516   65.8281 C   0  0  0  0  0  0  0  0  0  0  0  0
  -40.8041   61.3624   65.3127 C   0  0  0  0  0  0  0  0  0  0  0  0
  -39.7555   62.1845   65.8257 O   0  0  0  0  0  0  0  0  0  0  0  0
  -38.9024   61.8666   65.4909 H   0  0  0  0  0  0  0  0  0  0  0  0
  -40.8207   61.4956   63.8093 C   0  0  0  0  0  0  0  0  0  0  0  0
  -39.4594   61.5663   63.3397 O   0  0  0  0  0  0  0  0  0  0  0  0
  -39.0240   60.7272   62.0607 P   0  0  0  0  0  0  0  0  0  0  0  0
  -40.0280   60.9883   61.0095 O   0  0  0  0  0  0  0  0  0  0  0  0
  -37.6078   61.0510   61.7990 O   0  0  0  0  0  0  0  0  0  0  0  0
  -37.5280   61.9896   61.5676 H   0  0  0  0  0  0  0  0  0  0  0  0
  -39.0919   59.1864   62.4324 O   0  0  0  0  0  0  0  0  0  0  0  0
  -37.9510   58.3351   62.1732 C   0  0  0  0  0  0  0  0  0  0  0  0
  -37.6113   57.6844   63.4949 C   0  0  0  0  0  0  0  0  0  0  0  0
  -36.2762   58.0640   64.1042 N   0  0  0  0  0  0  0  0  0  0  0  0
  -36.4126   59.2483   65.0063 C   0  0  0  0  0  0  0  0  0  0  0  0
  -35.3076   58.4012   63.0162 C   0  0  0  0  0  0  0  0  0  0  0  0
  -35.7437   56.9144   64.9006 C   0  0  0  0  0  0  0  0  0  0  0  0
 34 33  1  0  0  0
 34 35  1  0  0  0
 34 36  1  0  0  0
 34 37  1  0  0  0
 22 23  1  0  0  0
 22 25  1  0  0  0
 22 21  1  0  0  0
 23 24  1  0  0  0
 27 26  1  0  0  0
 27 28  2  0  0  0
 27 31  1  0  0  0
 27 29  1  0  0  0
 25 26  1  0  0  0
 32 33  1  0  0  0
 32 31  1  0  0  0
 29 30  1  0  0  0
 20 21  1  0  0  0
 20  2  1  0  0  0
  1  2  2  0  0  0
  2  3  1  0  0  0
  3  4  1  0  0  0
  4  5  1  0  0  0
  5  6  1  0  0  0
  6  7  1  0  0  0
  7  8  1  0  0  0
  8  9  1  0  0  0
  9 10  1  0  0  0
 10 11  2  0  0  0
 11 12  1  0  0  0
 12 13  1  0  0  0
 13 14  1  0  0  0
 14 15  1  0  0  0
 15 16  1  0  0  0
 16 17  1  0  0  0
 17 18  1  0  0  0
 18 19  1  0  0  0
M  CHG 1  28  -1
M  END
> <minimizedAffinity>
-8.35901

> <CNNscore>
0.7944294214

> <CNNaffinity>
6.9399490356

> <CNN_VS>
5.5132994652

> <CNNaffinity_variance>
0.2920759320

$$$$
/media/chris/experiments/cd1a-new-docking/inputs/ligands/4x6c_ligand.pdb


 37 36  0  0  0  0  0  0  0  0999 V2000
  -41.8472   58.4226   65.6280 O   0  0  0  0  0  0  0  0  0  0  0  0
  -42.4893   59.3556   65.2538 C   0  0  0  0  0  0  0  0  0  0  0  0
  -43.9381   59.2968   64.8953 C   0  0  0  0  0  0  0  0  0  0  0  0
  -44.8357   59.0743   66.0979 C   0  0  0  0  0  0  0  0  0  0  0  0
  -45.9380   58.0717   65.8329 C   0  0  0  0  0  0  0  0  0  0  0  0
  -47.3074   58.6815   65.6464 C   0  0  0  0  0  0  0  0  0  0  0  0
  -48.1440   57.9939   64.5978 C   0  0  0  0  0  0  0  0  0  0  0  0
  -49.6182   58.2205   64.8002 C   0  0  0  0  0  0  0  0  0  0  0  0
  -50.0590   59.6541   64.7732 C   0  0  0  0  0  0  0  0  0  0  0  0
  -51.1117   59.9215   63.7827 C   0  0  0  0  0  0  0  0  0  0  0  0
  -50.9760   60.1062   62.4880 C   0  0  0  0  0  0  0  0  0  0  0  0
  -49.7270   60.0701   61.6860 C   0  0  0  0  0  0  0  0  0  0  0  0
  -49.6856   59.0268   60.5882 C   0  0  0  0  0  0  0  0  0  0  0  0
  -49.8268   57.6245   61.1134 C   0  0  0  0  0  0  0  0  0  0  0  0
  -49.8030   56.5509   60.0558 C   0  0  0  0  0  0  0  0  0  0  0  0
  -48.8955   56.8970   58.8959 C   0  0  0  0  0  0  0  0  0  0  0  0
  -47.5396   56.2492   58.9375 C   0  0  0  0  0  0  0  0  0  0  0  0
  -47.1261   55.6820   57.6389 C   0  0  0  0  0  0  0  0  0  0  0  0
  -47.8622   56.2348   56.5036 C   0  0  0  0  0  0  0  0  0  0  0  0
  -41.9927   60.5827   65.0971 O   0  0  0  0  0  0  0  0  0  0  0  0
  -41.0252   60.7817   64.0424 C   0  0  0  0  0  0  0  0  0  0  0  0
  -39.8402   61.4915   64.6557 C   0  0  0  0  0  0  0  0  0  0  0  0
  -40.2582   62.1888   65.8293 O   0  0  0  0  0  0  0  0  0  0  0  0
  -40.5719   61.5513   66.4897 H   0  0  0  0  0  0  0  0  0  0  0  0
  -38.6796   60.5982   65.0212 C   0  0  0  0  0  0  0  0  0  0  0  0
  -37.8639   61.2809   65.9945 O   0  0  0  0  0  0  0  0  0  0  0  0
  -36.4891   61.9415   65.5440 P   0  0  0  0  0  0  0  0  0  0  0  0
  -35.4430   60.9101   65.6960 O   0  0  0  0  0  0  0  0  0  0  0  0
  -36.7189   62.5425   64.2155 O   0  0  0  0  0  0  0  0  0  0  0  0
  -36.9250   61.8434   63.5755 H   0  0  0  0  0  0  0  0  0  0  0  0
  -36.1580   63.1274   66.5444 O   0  0  0  0  0  0  0  0  0  0  0  0
  -34.7828   63.5253   66.7550 C   0  0  0  0  0  0  0  0  0  0  0  0
  -34.4951   64.5857   65.7165 C   0  0  0  0  0  0  0  0  0  0  0  0
  -33.1301   64.5264   65.0598 N   0  0  0  0  0  0  0  0  0  0  0  0
  -32.9532   65.6437   64.0824 C   0  0  0  0  0  0  0  0  0  0  0  0
  -32.9804   63.2280   64.3336 C   0  0  0  0  0  0  0  0  0  0  0  0
  -32.0656   64.6327   66.1061 C   0  0  0  0  0  0  0  0  0  0  0  0
 34 33  1  0  0  0
 34 35  1  0  0  0
 34 36  1  0  0  0
 34 37  1  0  0  0
 22 23  1  0  0  0
 22 25  1  0  0  0
 22 21  1  0  0  0
 23 24  1  0  0  0
 27 26  1  0  0  0
 27 28  2  0  0  0
 27 31  1  0  0  0
 27 29  1  0  0  0
 25 26  1  0  0  0
 32 33  1  0  0  0
 32 31  1  0  0  0
 29 30  1  0  0  0
 20 21  1  0  0  0
 20  2  1  0  0  0
  1  2  2  0  0  0
  2  3  1  0  0  0
  3  4  1  0  0  0
  4  5  1  0  0  0
  5  6  1  0  0  0
  6  7  1  0  0  0
  7  8  1  0  0  0
  8  9  1  0  0  0
  9 10  1  0  0  0
 10 11  2  0  0  0
 11 12  1  0  0  0
 12 13  1  0  0  0
 13 14  1  0  0  0
 14 15  1  0  0  0
 15 16  1  0  0  0
 16 17  1  0  0  0
 17 18  1  0  0  0
 18 19  1  0  0  0
M  CHG 1  28  -1
M  END
> <minimizedAffinity>
-8.15008

> <CNNscore>
0.7879002094

> <CNNaffinity>
6.4571771622

> <CNN_VS>
5.0876111984

> <CNNaffinity_variance>
0.4152744412

$$$$
/media/chris/experiments/cd1a-new-docking/inputs/ligands/4x6c_ligand.pdb


 37 36  0  0  0  0  0  0  0  0999 V2000
  -42.7772   56.8545   66.0885 O   0  0  0  0  0  0  0  0  0  0  0  0
  -42.8571   57.9645   65.6591 C   0  0  0  0  0  0  0  0  0  0  0  0
  -44.0940   58.5554   65.0659 C   0  0  0  0  0  0  0  0  0  0  0  0
  -45.3581   57.8364   65.4978 C   0  0  0  0  0  0  0  0  0  0  0  0
  -46.5623   58.2067   64.6592 C   0  0  0  0  0  0  0  0  0  0  0  0
  -47.8476   58.3522   65.4393 C   0  0  0  0  0  0  0  0  0  0  0  0
  -48.1161   59.7565   65.9168 C   0  0  0  0  0  0  0  0  0  0  0  0
  -47.7851   60.7905   64.8744 C   0  0  0  0  0  0  0  0  0  0  0  0
  -48.7749   60.9154   63.7541 C   0  0  0  0  0  0  0  0  0  0  0  0
  -50.1538   60.6040   64.1574 C   0  0  0  0  0  0  0  0  0  0  0  0
  -51.0725   59.9629   63.4691 C   0  0  0  0  0  0  0  0  0  0  0  0
  -50.9495   59.3666   62.1150 C   0  0  0  0  0  0  0  0  0  0  0  0
  -50.4583   57.9340   62.0742 C   0  0  0  0  0  0  0  0  0  0  0  0
  -50.8760   57.2118   60.8228 C   0  0  0  0  0  0  0  0  0  0  0  0
  -49.9274   57.3645   59.6614 C   0  0  0  0  0  0  0  0  0  0  0  0
  -48.5887   56.7066   59.9136 C   0  0  0  0  0  0  0  0  0  0  0  0
  -47.9917   56.0089   58.7233 C   0  0  0  0  0  0  0  0  0  0  0  0
  -48.3534   56.6392   57.4383 C   0  0  0  0  0  0  0  0  0  0  0  0
  -47.3208   56.5010   56.4133 C   0  0  0  0  0  0  0  0  0  0  0  0
  -41.8425   58.8289   65.6446 O   0  0  0  0  0  0  0  0  0  0  0  0
  -42.1216   60.1786   65.2104 C   0  0  0  0  0  0  0  0  0  0  0  0
  -40.8136   60.7729   64.7413 C   0  0  0  0  0  0  0  0  0  0  0  0
  -40.9707   62.1792   64.5511 O   0  0  0  0  0  0  0  0  0  0  0  0
  -41.1773   62.5992   65.4007 H   0  0  0  0  0  0  0  0  0  0  0  0
  -39.6411   60.5459   65.6645 C   0  0  0  0  0  0  0  0  0  0  0  0
  -38.8709   61.7626   65.7359 O   0  0  0  0  0  0  0  0  0  0  0  0
  -37.3604   61.7675   65.2380 P   0  0  0  0  0  0  0  0  0  0  0  0
  -37.3695   62.2199   63.8322 O   0  0  0  0  0  0  0  0  0  0  0  0
  -36.5845   62.5317   66.2345 O   0  0  0  0  0  0  0  0  0  0  0  0
  -36.8873   63.4532   66.2426 H   0  0  0  0  0  0  0  0  0  0  0  0
  -36.8235   60.2750   65.2698 O   0  0  0  0  0  0  0  0  0  0  0  0
  -36.4242   59.6300   64.0376 C   0  0  0  0  0  0  0  0  0  0  0  0
  -34.9150   59.7098   63.9987 C   0  0  0  0  0  0  0  0  0  0  0  0
  -34.1754   58.3869   63.9730 N   0  0  0  0  0  0  0  0  0  0  0  0
  -35.1130   57.2499   63.7220 C   0  0  0  0  0  0  0  0  0  0  0  0
  -33.4984   58.1666   65.2877 C   0  0  0  0  0  0  0  0  0  0  0  0
  -33.1474   58.4084   62.8857 C   0  0  0  0  0  0  0  0  0  0  0  0
 34 33  1  0  0  0
 34 35  1  0  0  0
 34 36  1  0  0  0
 34 37  1  0  0  0
 22 23  1  0  0  0
 22 25  1  0  0  0
 22 21  1  0  0  0
 23 24  1  0  0  0
 27 26  1  0  0  0
 27 28  2  0  0  0
 27 31  1  0  0  0
 27 29  1  0  0  0
 25 26  1  0  0  0
 32 33  1  0  0  0
 32 31  1  0  0  0
 29 30  1  0  0  0
 20 21  1  0  0  0
 20  2  1  0  0  0
  1  2  2  0  0  0
  2  3  1  0  0  0
  3  4  1  0  0  0
  4  5  1  0  0  0
  5  6  1  0  0  0
  6  7  1  0  0  0
  7  8  1  0  0  0
  8  9  1  0  0  0
  9 10  1  0  0  0
 10 11  2  0  0  0
 11 12  1  0  0  0
 12 13  1  0  0  0
 13 14  1  0  0  0
 14 15  1  0  0  0
 15 16  1  0  0  0
 16 17  1  0  0  0
 17 18  1  0  0  0
 18 19  1  0  0  0
M  CHG 1  28  -1
M  END
> <minimizedAffinity>
-8.03136

> <CNNscore>
0.7712280750

> <CNNaffinity>
6.6956901550

> <CNN_VS>
5.1639041901

> <CNNaffinity_variance>
0.3898507357

$$$$
/media/chris/experiments/cd1a-new-docking/inputs/ligands/4x6c_ligand.pdb


 37 36  0  0  0  0  0  0  0  0999 V2000
  -41.1109   61.2988   66.1156 O   0  0  0  0  0  0  0  0  0  0  0  0
  -41.5040   60.3901   65.4504 C   0  0  0  0  0  0  0  0  0  0  0  0
  -42.6342   59.4902   65.8298 C   0  0  0  0  0  0  0  0  0  0  0  0
  -43.7208   59.4288   64.7730 C   0  0  0  0  0  0  0  0  0  0  0  0
  -44.4520   58.1039   64.7561 C   0  0  0  0  0  0  0  0  0  0  0  0
  -45.9287   58.1997   65.0593 C   0  0  0  0  0  0  0  0  0  0  0  0
  -46.2668   59.1965   66.1383 C   0  0  0  0  0  0  0  0  0  0  0  0
  -47.5255   59.9645   65.8365 C   0  0  0  0  0  0  0  0  0  0  0  0
  -48.3184   59.4664   64.6646 C   0  0  0  0  0  0  0  0  0  0  0  0
  -48.7597   60.5389   63.7614 C   0  0  0  0  0  0  0  0  0  0  0  0
  -49.7811   60.5299   62.9334 C   0  0  0  0  0  0  0  0  0  0  0  0
  -50.7680   59.4430   62.7118 C   0  0  0  0  0  0  0  0  0  0  0  0
  -50.5466   58.6028   61.4707 C   0  0  0  0  0  0  0  0  0  0  0  0
  -49.5120   57.5298   61.6722 C   0  0  0  0  0  0  0  0  0  0  0  0
  -49.3607   56.5760   60.5149 C   0  0  0  0  0  0  0  0  0  0  0  0
  -48.9044   57.2662   59.2483 C   0  0  0  0  0  0  0  0  0  0  0  0
  -47.6922   56.6595   58.5982 C   0  0  0  0  0  0  0  0  0  0  0  0
  -47.7569   56.6704   57.1234 C   0  0  0  0  0  0  0  0  0  0  0  0
  -47.0629   55.5430   56.5039 C   0  0  0  0  0  0  0  0  0  0  0  0
  -40.9771   60.0497   64.2742 O   0  0  0  0  0  0  0  0  0  0  0  0
  -40.4685   61.1126   63.4378 C   0  0  0  0  0  0  0  0  0  0  0  0
  -38.9699   60.9341   63.3560 C   0  0  0  0  0  0  0  0  0  0  0  0
  -38.5168   61.3041   62.0537 O   0  0  0  0  0  0  0  0  0  0  0  0
  -38.6923   62.2466   61.9060 H   0  0  0  0  0  0  0  0  0  0  0  0
  -38.1769   61.7154   64.3754 C   0  0  0  0  0  0  0  0  0  0  0  0
  -36.8691   61.9843   63.8313 O   0  0  0  0  0  0  0  0  0  0  0  0
  -35.8065   62.7888   64.6991 P   0  0  0  0  0  0  0  0  0  0  0  0
  -36.3680   62.9194   66.0588 O   0  0  0  0  0  0  0  0  0  0  0  0
  -34.5073   62.1114   64.5194 O   0  0  0  0  0  0  0  0  0  0  0  0
  -34.5569   61.2144   64.8853 H   0  0  0  0  0  0  0  0  0  0  0  0
  -35.6653   64.2446   64.0846 O   0  0  0  0  0  0  0  0  0  0  0  0
  -34.9443   64.4327   62.8442 C   0  0  0  0  0  0  0  0  0  0  0  0
  -34.1492   65.7070   63.0167 C   0  0  0  0  0  0  0  0  0  0  0  0
  -32.6758   65.5391   63.3306 N   0  0  0  0  0  0  0  0  0  0  0  0
  -32.4101   65.7312   64.7892 C   0  0  0  0  0  0  0  0  0  0  0  0
  -31.8828   66.5483   62.5635 C   0  0  0  0  0  0  0  0  0  0  0  0
  -32.2337   64.1637   62.9407 C   0  0  0  0  0  0  0  0  0  0  0  0
 34 33  1  0  0  0
 34 35  1  0  0  0
 34 36  1  0  0  0
 34 37  1  0  0  0
 22 23  1  0  0  0
 22 25  1  0  0  0
 22 21  1  0  0  0
 23 24  1  0  0  0
 27 26  1  0  0  0
 27 28  2  0  0  0
 27 31  1  0  0  0
 27 29  1  0  0  0
 25 26  1  0  0  0
 32 33  1  0  0  0
 32 31  1  0  0  0
 29 30  1  0  0  0
 20 21  1  0  0  0
 20  2  1  0  0  0
  1  2  2  0  0  0
  2  3  1  0  0  0
  3  4  1  0  0  0
  4  5  1  0  0  0
  5  6  1  0  0  0
  6  7  1  0  0  0
  7  8  1  0  0  0
  8  9  1  0  0  0
  9 10  1  0  0  0
 10 11  2  0  0  0
 11 12  1  0  0  0
 12 13  1  0  0  0
 13 14  1  0  0  0
 14 15  1  0  0  0
 15 16  1  0  0  0
 16 17  1  0  0  0
 17 18  1  0  0  0
 18 19  1  0  0  0
M  CHG 1  28  -1
M  END
> <minimizedAffinity>
-7.81400

> <CNNscore>
0.7577599287

> <CNNaffinity>
6.3529310226

> <CNN_VS>
4.8139967918

> <CNNaffinity_variance>
1.0558460951

$$$$
/media/chris/experiments/cd1a-new-docking/inputs/ligands/4x6c_ligand.pdb


 37 36  0  0  0  0  0  0  0  0999 V2000
  -42.4370   60.0419   66.9416 O   0  0  0  0  0  0  0  0  0  0  0  0
  -42.5422   60.1632   65.7596 C   0  0  0  0  0  0  0  0  0  0  0  0
  -43.7945   59.8982   64.9898 C   0  0  0  0  0  0  0  0  0  0  0  0
  -44.4815   58.6107   65.4043 C   0  0  0  0  0  0  0  0  0  0  0  0
  -45.9842   58.6632   65.2330 C   0  0  0  0  0  0  0  0  0  0  0  0
  -46.7249   59.2892   66.3911 C   0  0  0  0  0  0  0  0  0  0  0  0
  -47.9534   60.0619   65.9838 C   0  0  0  0  0  0  0  0  0  0  0  0
  -47.6989   60.9669   64.8084 C   0  0  0  0  0  0  0  0  0  0  0  0
  -48.7312   60.9162   63.7212 C   0  0  0  0  0  0  0  0  0  0  0  0
  -50.0473   60.4573   64.1883 C   0  0  0  0  0  0  0  0  0  0  0  0
  -50.9556   59.7862   63.5150 C   0  0  0  0  0  0  0  0  0  0  0  0
  -50.8791   59.2973   62.1151 C   0  0  0  0  0  0  0  0  0  0  0  0
  -50.4124   57.8657   61.9477 C   0  0  0  0  0  0  0  0  0  0  0  0
  -50.9246   57.2314   60.6839 C   0  0  0  0  0  0  0  0  0  0  0  0
  -49.9398   57.2168   59.5429 C   0  0  0  0  0  0  0  0  0  0  0  0
  -48.5614   56.7629   59.9702 C   0  0  0  0  0  0  0  0  0  0  0  0
  -47.9352   55.7211   59.0857 C   0  0  0  0  0  0  0  0  0  0  0  0
  -47.4348   56.2672   57.8087 C   0  0  0  0  0  0  0  0  0  0  0  0
  -47.5661   55.3373   56.6888 C   0  0  0  0  0  0  0  0  0  0  0  0
  -41.5456   60.5468   64.9618 O   0  0  0  0  0  0  0  0  0  0  0  0
  -40.2217   60.0514   65.2618 C   0  0  0  0  0  0  0  0  0  0  0  0
  -39.2895   61.2409   65.2479 C   0  0  0  0  0  0  0  0  0  0  0  0
  -39.9281   62.3536   65.8743 O   0  0  0  0  0  0  0  0  0  0  0  0
  -40.0987   62.1458   66.8063 H   0  0  0  0  0  0  0  0  0  0  0  0
  -37.9572   61.0163   65.9210 C   0  0  0  0  0  0  0  0  0  0  0  0
  -37.2490   62.2713   65.9670 O   0  0  0  0  0  0  0  0  0  0  0  0
  -35.6984   62.2868   66.3204 P   0  0  0  0  0  0  0  0  0  0  0  0
  -35.0707   63.3174   65.4688 O   0  0  0  0  0  0  0  0  0  0  0  0
  -35.5957   62.4063   67.7881 O   0  0  0  0  0  0  0  0  0  0  0  0
  -35.9630   63.2588   68.0696 H   0  0  0  0  0  0  0  0  0  0  0  0
  -35.0850   60.8795   65.9204 O   0  0  0  0  0  0  0  0  0  0  0  0
  -34.4524   60.7135   64.6296 C   0  0  0  0  0  0  0  0  0  0  0  0
  -35.2064   59.5997   63.9392 C   0  0  0  0  0  0  0  0  0  0  0  0
  -34.5563   58.2308   63.9722 N   0  0  0  0  0  0  0  0  0  0  0  0
  -33.2826   58.2576   64.7544 C   0  0  0  0  0  0  0  0  0  0  0  0
  -34.2510   57.7883   62.5770 C   0  0  0  0  0  0  0  0  0  0  0  0
  -35.4884   57.2484   64.6089 C   0  0  0  0  0  0  0  0  0  0  0  0
 34 33  1  0  0  0
 34 35  1  0  0  0
 34 36  1  0  0  0
 34 37  1  0  0  0
 22 23  1  0  0  0
 22 25  1  0  0  0
 22 21  1  0  0  0
 23 24  1  0  0  0
 27 26  1  0  0  0
 27 28  2  0  0  0
 27 31  1  0  0  0
 27 29  1  0  0  0
 25 26  1  0  0  0
 32 33  1  0  0  0
 32 31  1  0  0  0
 29 30  1  0  0  0
 20 21  1  0  0  0
 20  2  1  0  0  0
  1  2  2  0  0  0
  2  3  1  0  0  0
  3  4  1  0  0  0
  4  5  1  0  0  0
  5  6  1  0  0  0
  6  7  1  0  0  0
  7  8  1  0  0  0
  8  9  1  0  0  0
  9 10  1  0  0  0
 10 11  2  0  0  0
 11 12  1  0  0  0
 12 13  1  0  0  0
 13 14  1  0  0  0
 14 15  1  0  0  0
 15 16  1  0  0  0
 16 17  1  0  0  0
 17 18  1  0  0  0
 18 19  1  0  0  0
M  CHG 1  28  -1
M  END
> <minimizedAffinity>
-8.40697

> <CNNscore>
0.7294619679

> <CNNaffinity>
6.4748697281

> <CNN_VS>
4.7231712341

> <CNNaffinity_variance>
0.2590191960

$$$$
/media/chris/experiments/cd1a-new-docking/inputs/ligands/4x6c_ligand.pdb


 37 36  0  0  0  0  0  0  0  0999 V2000
  -40.5759   58.0337   65.1264 O   0  0  0  0  0  0  0  0  0  0  0  0
  -41.5646   58.6366   65.4122 C   0  0  0  0  0  0  0  0  0  0  0  0
  -42.6765   58.0916   66.2476 C   0  0  0  0  0  0  0  0  0  0  0  0
  -43.6189   57.1964   65.4654 C   0  0  0  0  0  0  0  0  0  0  0  0
  -44.5907   57.9736   64.6040 C   0  0  0  0  0  0  0  0  0  0  0  0
  -45.3462   59.0584   65.3350 C   0  0  0  0  0  0  0  0  0  0  0  0
  -46.5258   58.5537   66.1263 C   0  0  0  0  0  0  0  0  0  0  0  0
  -47.6175   58.0090   65.2449 C   0  0  0  0  0  0  0  0  0  0  0  0
  -48.9015   58.7844   65.2566 C   0  0  0  0  0  0  0  0  0  0  0  0
  -48.9929   59.7766   64.1758 C   0  0  0  0  0  0  0  0  0  0  0  0
  -49.5982   59.6547   63.0150 C   0  0  0  0  0  0  0  0  0  0  0  0
  -50.3663   58.4920   62.5028 C   0  0  0  0  0  0  0  0  0  0  0  0
  -49.6149   57.5786   61.5560 C   0  0  0  0  0  0  0  0  0  0  0  0
  -50.4673   57.0968   60.4143 C   0  0  0  0  0  0  0  0  0  0  0  0
  -49.9483   57.4565   59.0457 C   0  0  0  0  0  0  0  0  0  0  0  0
  -48.7988   56.5750   58.6094 C   0  0  0  0  0  0  0  0  0  0  0  0
  -47.6422   57.3051   57.9856 C   0  0  0  0  0  0  0  0  0  0  0  0
  -47.1431   56.6603   56.7551 C   0  0  0  0  0  0  0  0  0  0  0  0
  -47.4546   55.2343   56.6800 C   0  0  0  0  0  0  0  0  0  0  0  0
  -41.8137   59.8841   65.0140 O   0  0  0  0  0  0  0  0  0  0  0  0
  -41.4943   60.9540   65.9312 C   0  0  0  0  0  0  0  0  0  0  0  0
  -40.2537   61.6361   65.4021 C   0  0  0  0  0  0  0  0  0  0  0  0
  -39.1108   61.1671   66.1177 O   0  0  0  0  0  0  0  0  0  0  0  0
  -38.9955   60.2176   65.9563 H   0  0  0  0  0  0  0  0  0  0  0  0
  -40.0012   61.4473   63.9260 C   0  0  0  0  0  0  0  0  0  0  0  0
  -38.9722   60.4510   63.7602 O   0  0  0  0  0  0  0  0  0  0  0  0
  -37.6992   60.7767   62.8642 P   0  0  0  0  0  0  0  0  0  0  0  0
  -36.7913   59.6161   62.9641 O   0  0  0  0  0  0  0  0  0  0  0  0
  -38.2031   61.1836   61.5377 O   0  0  0  0  0  0  0  0  0  0  0  0
  -38.6626   60.4366   61.1232 H   0  0  0  0  0  0  0  0  0  0  0  0
  -36.9605   62.0330   63.4909 O   0  0  0  0  0  0  0  0  0  0  0  0
  -35.5226   62.0132   63.6514 C   0  0  0  0  0  0  0  0  0  0  0  0
  -35.1014   63.4588   63.7880 C   0  0  0  0  0  0  0  0  0  0  0  0
  -33.9161   63.7277   64.6937 N   0  0  0  0  0  0  0  0  0  0  0  0
  -32.6264   63.4505   63.9903 C   0  0  0  0  0  0  0  0  0  0  0  0
  -34.0000   62.8501   65.9013 C   0  0  0  0  0  0  0  0  0  0  0  0
  -33.9285   65.1612   65.1232 C   0  0  0  0  0  0  0  0  0  0  0  0
 34 33  1  0  0  0
 34 35  1  0  0  0
 34 36  1  0  0  0
 34 37  1  0  0  0
 22 23  1  0  0  0
 22 25  1  0  0  0
 22 21  1  0  0  0
 23 24  1  0  0  0
 27 26  1  0  0  0
 27 28  2  0  0  0
 27 31  1  0  0  0
 27 29  1  0  0  0
 25 26  1  0  0  0
 32 33  1  0  0  0
 32 31  1  0  0  0
 29 30  1  0  0  0
 20 21  1  0  0  0
 20  2  1  0  0  0
  1  2  2  0  0  0
  2  3  1  0  0  0
  3  4  1  0  0  0
  4  5  1  0  0  0
  5  6  1  0  0  0
  6  7  1  0  0  0
  7  8  1  0  0  0
  8  9  1  0  0  0
  9 10  1  0  0  0
 10 11  2  0  0  0
 11 12  1  0  0  0
 12 13  1  0  0  0
 13 14  1  0  0  0
 14 15  1  0  0  0
 15 16  1  0  0  0
 16 17  1  0  0  0
 17 18  1  0  0  0
 18 19  1  0  0  0
M  CHG 1  28  -1
M  END
> <minimizedAffinity>
-7.55534

> <CNNscore>
0.6859151721

> <CNNaffinity>
6.3956675529

> <CNN_VS>
4.3868856430

> <CNNaffinity_variance>
0.4161135554

$$$$
