/media/chris/experiments/cd1a-new-docking/inputs/ligands/4x6c_ligand.pdb


 37 36  0  0  0  0  0  0  0  0999 V2000
  -42.3856   57.8486   65.5534 O   0  0  0  0  0  0  0  0  0  0  0  0
  -42.7600   58.9583   65.3266 C   0  0  0  0  0  0  0  0  0  0  0  0
  -44.1942   59.3667   65.2407 C   0  0  0  0  0  0  0  0  0  0  0  0
  -45.1384   58.3358   65.8300 C   0  0  0  0  0  0  0  0  0  0  0  0
  -46.1736   57.8501   64.8386 C   0  0  0  0  0  0  0  0  0  0  0  0
  -47.4903   58.5881   64.8962 C   0  0  0  0  0  0  0  0  0  0  0  0
  -48.6978   57.6891   64.8175 C   0  0  0  0  0  0  0  0  0  0  0  0
  -49.9531   58.3715   65.2910 C   0  0  0  0  0  0  0  0  0  0  0  0
  -50.0663   59.8259   64.9419 C   0  0  0  0  0  0  0  0  0  0  0  0
  -51.0970   60.1042   63.9312 C   0  0  0  0  0  0  0  0  0  0  0  0
  -50.9481   60.1954   62.6281 C   0  0  0  0  0  0  0  0  0  0  0  0
  -49.7048   60.0189   61.8361 C   0  0  0  0  0  0  0  0  0  0  0  0
  -49.7605   58.9519   60.7620 C   0  0  0  0  0  0  0  0  0  0  0  0
  -49.3880   57.5887   61.2769 C   0  0  0  0  0  0  0  0  0  0  0  0
  -49.6653   56.4571   60.3206 C   0  0  0  0  0  0  0  0  0  0  0  0
  -48.8611   56.5641   59.0438 C   0  0  0  0  0  0  0  0  0  0  0  0
  -47.6365   55.6938   58.9919 C   0  0  0  0  0  0  0  0  0  0  0  0
  -46.9448   55.7404   57.6886 C   0  0  0  0  0  0  0  0  0  0  0  0
  -46.5844   57.0939   57.2711 C   0  0  0  0  0  0  0  0  0  0  0  0
  -41.9411   59.9875   65.1102 O   0  0  0  0  0  0  0  0  0  0  0  0
  -40.8173   60.1461   66.0045 C   0  0  0  0  0  0  0  0  0  0  0  0
  -39.9083   61.1879   65.3938 C   0  0  0  0  0  0  0  0  0  0  0  0
  -40.2135   62.4686   65.9459 O   0  0  0  0  0  0  0  0  0  0  0  0
  -40.0282   62.4627   66.8980 H   0  0  0  0  0  0  0  0  0  0  0  0
  -38.4317   60.9319   65.5740 C   0  0  0  0  0  0  0  0  0  0  0  0
  -37.7467   62.2002   65.6068 O   0  0  0  0  0  0  0  0  0  0  0  0
  -36.1574   62.2371   65.5606 P   0  0  0  0  0  0  0  0  0  0  0  0
  -35.7691   63.5841   65.0959 O   0  0  0  0  0  0  0  0  0  0  0  0
  -35.6806   61.7645   66.8753 O   0  0  0  0  0  0  0  0  0  0  0  0
  -35.9625   62.3865   67.5642 H   0  0  0  0  0  0  0  0  0  0  0  0
  -35.6687   61.1849   64.4785 O   0  0  0  0  0  0  0  0  0  0  0  0
  -34.8223   60.0825   64.8810 C   0  0  0  0  0  0  0  0  0  0  0  0
  -33.6038   60.1487   63.9885 C   0  0  0  0  0  0  0  0  0  0  0  0
  -32.9860   58.8203   63.5997 N   0  0  0  0  0  0  0  0  0  0  0  0
  -32.4226   58.1180   64.7932 C   0  0  0  0  0  0  0  0  0  0  0  0
  -31.8837   59.0501   62.6161 C   0  0  0  0  0  0  0  0  0  0  0  0
  -34.0286   57.9454   62.9776 C   0  0  0  0  0  0  0  0  0  0  0  0
 34 33  1  0  0  0
 34 35  1  0  0  0
 34 36  1  0  0  0
 34 37  1  0  0  0
 22 23  1  0  0  0
 22 25  1  0  0  0
 22 21  1  0  0  0
 23 24  1  0  0  0
 27 26  1  0  0  0
 27 28  2  0  0  0
 27 31  1  0  0  0
 27 29  1  0  0  0
 25 26  1  0  0  0
 32 33  1  0  0  0
 32 31  1  0  0  0
 29 30  1  0  0  0
 20 21  1  0  0  0
 20  2  1  0  0  0
  1  2  2  0  0  0
  2  3  1  0  0  0
  3  4  1  0  0  0
  4  5  1  0  0  0
  5  6  1  0  0  0
  6  7  1  0  0  0
  7  8  1  0  0  0
  8  9  1  0  0  0
  9 10  1  0  0  0
 10 11  2  0  0  0
 11 12  1  0  0  0
 12 13  1  0  0  0
 13 14  1  0  0  0
 14 15  1  0  0  0
 15 16  1  0  0  0
 16 17  1  0  0  0
 17 18  1  0  0  0
 18 19  1  0  0  0
M  CHG 1  28  -1
M  END
> <minimizedAffinity>
-8.11189

> <CNNscore>
0.8812394142

> <CNNaffinity>
6.7025136948

> <CNN_VS>
5.9065194130

> <CNNaffinity_variance>
0.2298968136

$$$$
/media/chris/experiments/cd1a-new-docking/inputs/ligands/4x6c_ligand.pdb


 37 36  0  0  0  0  0  0  0  0999 V2000
  -42.2056   57.6304   65.7397 O   0  0  0  0  0  0  0  0  0  0  0  0
  -42.7940   58.6628   65.6354 C   0  0  0  0  0  0  0  0  0  0  0  0
  -44.0381   58.8502   64.8302 C   0  0  0  0  0  0  0  0  0  0  0  0
  -45.0196   59.8111   65.4743 C   0  0  0  0  0  0  0  0  0  0  0  0
  -46.4430   59.6020   65.0049 C   0  0  0  0  0  0  0  0  0  0  0  0
  -46.8107   58.1605   64.7429 C   0  0  0  0  0  0  0  0  0  0  0  0
  -48.2854   57.8743   64.8679 C   0  0  0  0  0  0  0  0  0  0  0  0
  -49.0435   59.0238   65.4757 C   0  0  0  0  0  0  0  0  0  0  0  0
  -50.4851   59.1285   65.0742 C   0  0  0  0  0  0  0  0  0  0  0  0
  -50.7179   60.0846   63.9820 C   0  0  0  0  0  0  0  0  0  0  0  0
  -50.8789   59.8276   62.7027 C   0  0  0  0  0  0  0  0  0  0  0  0
  -50.8901   58.5034   62.0313 C   0  0  0  0  0  0  0  0  0  0  0  0
  -49.9049   58.3405   60.8918 C   0  0  0  0  0  0  0  0  0  0  0  0
  -50.2347   57.1748   60.0005 C   0  0  0  0  0  0  0  0  0  0  0  0
  -49.2439   56.0403   60.0554 C   0  0  0  0  0  0  0  0  0  0  0  0
  -47.8614   56.4528   59.6002 C   0  0  0  0  0  0  0  0  0  0  0  0
  -47.3082   55.6547   58.4526 C   0  0  0  0  0  0  0  0  0  0  0  0
  -46.8366   56.4948   57.3340 C   0  0  0  0  0  0  0  0  0  0  0  0
  -47.7188   56.4587   56.1693 C   0  0  0  0  0  0  0  0  0  0  0  0
  -42.4115   59.7969   66.2220 O   0  0  0  0  0  0  0  0  0  0  0  0
  -41.0211   60.1727   66.1060 C   0  0  0  0  0  0  0  0  0  0  0  0
  -40.9653   61.3980   65.2228 C   0  0  0  0  0  0  0  0  0  0  0  0
  -40.5880   62.5315   66.0044 O   0  0  0  0  0  0  0  0  0  0  0  0
  -39.6925   62.4001   66.3533 H   0  0  0  0  0  0  0  0  0  0  0  0
  -40.0234   61.2958   64.0476 C   0  0  0  0  0  0  0  0  0  0  0  0
  -38.8055   60.6631   64.4892 O   0  0  0  0  0  0  0  0  0  0  0  0
  -37.4450   61.4868   64.4854 P   0  0  0  0  0  0  0  0  0  0  0  0
  -37.2857   62.0530   63.1307 O   0  0  0  0  0  0  0  0  0  0  0  0
  -37.4945   62.3989   65.6450 O   0  0  0  0  0  0  0  0  0  0  0  0
  -38.2162   63.0357   65.5250 H   0  0  0  0  0  0  0  0  0  0  0  0
  -36.2512   60.4726   64.7368 O   0  0  0  0  0  0  0  0  0  0  0  0
  -36.4801   59.0496   64.6097 C   0  0  0  0  0  0  0  0  0  0  0  0
  -36.1708   58.7075   63.1699 C   0  0  0  0  0  0  0  0  0  0  0  0
  -37.2924   58.0638   62.3791 N   0  0  0  0  0  0  0  0  0  0  0  0
  -37.8922   59.0308   61.4095 C   0  0  0  0  0  0  0  0  0  0  0  0
  -38.3621   57.6000   63.3150 C   0  0  0  0  0  0  0  0  0  0  0  0
  -36.7598   56.8908   61.6176 C   0  0  0  0  0  0  0  0  0  0  0  0
 34 33  1  0  0  0
 34 35  1  0  0  0
 34 36  1  0  0  0
 34 37  1  0  0  0
 22 23  1  0  0  0
 22 25  1  0  0  0
 22 21  1  0  0  0
 23 24  1  0  0  0
 27 26  1  0  0  0
 27 28  2  0  0  0
 27 31  1  0  0  0
 27 29  1  0  0  0
 25 26  1  0  0  0
 32 33  1  0  0  0
 32 31  1  0  0  0
 29 30  1  0  0  0
 20 21  1  0  0  0
 20  2  1  0  0  0
  1  2  2  0  0  0
  2  3  1  0  0  0
  3  4  1  0  0  0
  4  5  1  0  0  0
  5  6  1  0  0  0
  6  7  1  0  0  0
  7  8  1  0  0  0
  8  9  1  0  0  0
  9 10  1  0  0  0
 10 11  2  0  0  0
 11 12  1  0  0  0
 12 13  1  0  0  0
 13 14  1  0  0  0
 14 15  1  0  0  0
 15 16  1  0  0  0
 16 17  1  0  0  0
 17 18  1  0  0  0
 18 19  1  0  0  0
M  CHG 1  28  -1
M  END
> <minimizedAffinity>
-8.24814

> <CNNscore>
0.8512951136

> <CNNaffinity>
7.0426673889

> <CNN_VS>
5.9953885078

> <CNNaffinity_variance>
0.3380047381

$$$$
/media/chris/experiments/cd1a-new-docking/inputs/ligands/4x6c_ligand.pdb


 37 36  0  0  0  0  0  0  0  0999 V2000
  -42.2407   57.9034   65.8955 O   0  0  0  0  0  0  0  0  0  0  0  0
  -42.9029   58.8472   65.5896 C   0  0  0  0  0  0  0  0  0  0  0  0
  -44.0243   58.8104   64.6035 C   0  0  0  0  0  0  0  0  0  0  0  0
  -45.0470   57.7331   64.9117 C   0  0  0  0  0  0  0  0  0  0  0  0
  -46.4598   58.2688   64.9964 C   0  0  0  0  0  0  0  0  0  0  0  0
  -46.7183   59.1684   66.1821 C   0  0  0  0  0  0  0  0  0  0  0  0
  -47.8921   60.0965   65.9996 C   0  0  0  0  0  0  0  0  0  0  0  0
  -47.7089   61.0311   64.8341 C   0  0  0  0  0  0  0  0  0  0  0  0
  -48.6406   60.8108   63.6793 C   0  0  0  0  0  0  0  0  0  0  0  0
  -50.0427   60.6381   64.0863 C   0  0  0  0  0  0  0  0  0  0  0  0
  -51.0073   60.0339   63.4283 C   0  0  0  0  0  0  0  0  0  0  0  0
  -50.9266   59.3491   62.1134 C   0  0  0  0  0  0  0  0  0  0  0  0
  -50.4930   57.8981   62.1582 C   0  0  0  0  0  0  0  0  0  0  0  0
  -50.9293   57.1234   60.9452 C   0  0  0  0  0  0  0  0  0  0  0  0
  -50.2801   57.5552   59.6553 C   0  0  0  0  0  0  0  0  0  0  0  0
  -48.7963   57.2621   59.6242 C   0  0  0  0  0  0  0  0  0  0  0  0
  -48.4397   55.8281   59.3477 C   0  0  0  0  0  0  0  0  0  0  0  0
  -47.3053   55.6806   58.4146 C   0  0  0  0  0  0  0  0  0  0  0  0
  -47.0103   56.8988   57.6627 C   0  0  0  0  0  0  0  0  0  0  0  0
  -42.7231   60.0714   66.0854 O   0  0  0  0  0  0  0  0  0  0  0  0
  -41.4706   60.3444   66.7521 C   0  0  0  0  0  0  0  0  0  0  0  0
  -40.6037   61.1031   65.7737 C   0  0  0  0  0  0  0  0  0  0  0  0
  -40.6748   62.5002   66.0587 O   0  0  0  0  0  0  0  0  0  0  0  0
  -40.3099   62.6691   66.9414 H   0  0  0  0  0  0  0  0  0  0  0  0
  -39.1507   60.6943   65.7574 C   0  0  0  0  0  0  0  0  0  0  0  0
  -38.3445   61.8731   65.5594 O   0  0  0  0  0  0  0  0  0  0  0  0
  -36.7588   61.7546   65.5833 P   0  0  0  0  0  0  0  0  0  0  0  0
  -36.3524   61.6678   67.0005 O   0  0  0  0  0  0  0  0  0  0  0  0
  -36.3983   60.6580   64.6632 O   0  0  0  0  0  0  0  0  0  0  0  0
  -36.7541   59.8215   65.0020 H   0  0  0  0  0  0  0  0  0  0  0  0
  -36.1530   63.0911   64.9801 O   0  0  0  0  0  0  0  0  0  0  0  0
  -34.7678   63.4270   65.2292 C   0  0  0  0  0  0  0  0  0  0  0  0
  -34.0360   63.1524   63.9351 C   0  0  0  0  0  0  0  0  0  0  0  0
  -32.7010   63.8486   63.7603 N   0  0  0  0  0  0  0  0  0  0  0  0
  -32.1927   64.3746   65.0641 C   0  0  0  0  0  0  0  0  0  0  0  0
  -32.8542   64.9930   62.8105 C   0  0  0  0  0  0  0  0  0  0  0  0
  -31.6994   62.8818   63.2111 C   0  0  0  0  0  0  0  0  0  0  0  0
 34 33  1  0  0  0
 34 35  1  0  0  0
 34 36  1  0  0  0
 34 37  1  0  0  0
 22 23  1  0  0  0
 22 25  1  0  0  0
 22 21  1  0  0  0
 23 24  1  0  0  0
 27 26  1  0  0  0
 27 28  2  0  0  0
 27 31  1  0  0  0
 27 29  1  0  0  0
 25 26  1  0  0  0
 32 33  1  0  0  0
 32 31  1  0  0  0
 29 30  1  0  0  0
 20 21  1  0  0  0
 20  2  1  0  0  0
  1  2  2  0  0  0
  2  3  1  0  0  0
  3  4  1  0  0  0
  4  5  1  0  0  0
  5  6  1  0  0  0
  6  7  1  0  0  0
  7  8  1  0  0  0
  8  9  1  0  0  0
  9 10  1  0  0  0
 10 11  2  0  0  0
 11 12  1  0  0  0
 12 13  1  0  0  0
 13 14  1  0  0  0
 14 15  1  0  0  0
 15 16  1  0  0  0
 16 17  1  0  0  0
 17 18  1  0  0  0
 18 19  1  0  0  0
M  CHG 1  28  -1
M  END
> <minimizedAffinity>
-8.27609

> <CNNscore>
0.7745091915

> <CNNaffinity>
6.3260059357

> <CNN_VS>
4.8995499611

> <CNNaffinity_variance>
0.1923981607

$$$$
/media/chris/experiments/cd1a-new-docking/inputs/ligands/4x6c_ligand.pdb


 37 36  0  0  0  0  0  0  0  0999 V2000
  -40.1339   58.2741   64.7463 O   0  0  0  0  0  0  0  0  0  0  0  0
  -40.5705   59.2087   65.3454 C   0  0  0  0  0  0  0  0  0  0  0  0
  -41.9734   59.3114   65.8481 C   0  0  0  0  0  0  0  0  0  0  0  0
  -42.9430   59.8141   64.7952 C   0  0  0  0  0  0  0  0  0  0  0  0
  -44.3877   59.7348   65.2389 C   0  0  0  0  0  0  0  0  0  0  0  0
  -45.0821   58.4415   64.8825 C   0  0  0  0  0  0  0  0  0  0  0  0
  -46.5729   58.4681   65.1035 C   0  0  0  0  0  0  0  0  0  0  0  0
  -46.9699   59.3852   66.2291 C   0  0  0  0  0  0  0  0  0  0  0  0
  -48.1185   60.3045   65.9361 C   0  0  0  0  0  0  0  0  0  0  0  0
  -48.0354   60.9374   64.6118 C   0  0  0  0  0  0  0  0  0  0  0  0
  -48.8967   60.8572   63.6217 C   0  0  0  0  0  0  0  0  0  0  0  0
  -50.1881   60.1253   63.5911 C   0  0  0  0  0  0  0  0  0  0  0  0
  -50.0886   58.6354   63.3354 C   0  0  0  0  0  0  0  0  0  0  0  0
  -50.6792   58.2319   62.0123 C   0  0  0  0  0  0  0  0  0  0  0  0
  -49.7862   57.3647   61.1624 C   0  0  0  0  0  0  0  0  0  0  0  0
  -49.9998   57.5856   59.6811 C   0  0  0  0  0  0  0  0  0  0  0  0
  -48.8675   57.1303   58.8033 C   0  0  0  0  0  0  0  0  0  0  0  0
  -48.2858   55.8412   59.2265 C   0  0  0  0  0  0  0  0  0  0  0  0
  -46.9970   55.5529   58.6003 C   0  0  0  0  0  0  0  0  0  0  0  0
  -39.8606   60.2975   65.6410 O   0  0  0  0  0  0  0  0  0  0  0  0
  -38.4698   60.3144   65.2492 C   0  0  0  0  0  0  0  0  0  0  0  0
  -38.2963   61.4609   64.2797 C   0  0  0  0  0  0  0  0  0  0  0  0
  -37.5301   62.4950   64.8975 O   0  0  0  0  0  0  0  0  0  0  0  0
  -36.6406   62.1633   65.0968 H   0  0  0  0  0  0  0  0  0  0  0  0
  -37.6367   61.0970   62.9717 C   0  0  0  0  0  0  0  0  0  0  0  0
  -38.3812   60.0210   62.3660 O   0  0  0  0  0  0  0  0  0  0  0  0
  -37.6036   58.8031   61.7016 P   0  0  0  0  0  0  0  0  0  0  0  0
  -38.0683   57.5737   62.3753 O   0  0  0  0  0  0  0  0  0  0  0  0
  -37.7756   58.9319   60.2411 O   0  0  0  0  0  0  0  0  0  0  0  0
  -38.7138   58.8310   60.0159 H   0  0  0  0  0  0  0  0  0  0  0  0
  -36.0568   58.9762   62.0088 O   0  0  0  0  0  0  0  0  0  0  0  0
  -35.4377   58.1785   63.0452 C   0  0  0  0  0  0  0  0  0  0  0  0
  -33.9494   58.2508   62.7899 C   0  0  0  0  0  0  0  0  0  0  0  0
  -33.1377   59.0546   63.7862 N   0  0  0  0  0  0  0  0  0  0  0  0
  -32.8930   58.2734   65.0371 C   0  0  0  0  0  0  0  0  0  0  0  0
  -33.8768   60.3050   64.1406 C   0  0  0  0  0  0  0  0  0  0  0  0
  -31.8173   59.4160   63.1817 C   0  0  0  0  0  0  0  0  0  0  0  0
 34 33  1  0  0  0
 34 35  1  0  0  0
 34 36  1  0  0  0
 34 37  1  0  0  0
 22 23  1  0  0  0
 22 25  1  0  0  0
 22 21  1  0  0  0
 23 24  1  0  0  0
 27 26  1  0  0  0
 27 28  2  0  0  0
 27 31  1  0  0  0
 27 29  1  0  0  0
 25 26  1  0  0  0
 32 33  1  0  0  0
 32 31  1  0  0  0
 29 30  1  0  0  0
 20 21  1  0  0  0
 20  2  1  0  0  0
  1  2  2  0  0  0
  2  3  1  0  0  0
  3  4  1  0  0  0
  4  5  1  0  0  0
  5  6  1  0  0  0
  6  7  1  0  0  0
  7  8  1  0  0  0
  8  9  1  0  0  0
  9 10  1  0  0  0
 10 11  2  0  0  0
 11 12  1  0  0  0
 12 13  1  0  0  0
 13 14  1  0  0  0
 14 15  1  0  0  0
 15 16  1  0  0  0
 16 17  1  0  0  0
 17 18  1  0  0  0
 18 19  1  0  0  0
M  CHG 1  28  -1
M  END
> <minimizedAffinity>
-7.93557

> <CNNscore>
0.7304186225

> <CNNaffinity>
6.4797792435

> <CNN_VS>
4.7329516411

> <CNNaffinity_variance>
0.3543863893

$$$$
/media/chris/experiments/cd1a-new-docking/inputs/ligands/4x6c_ligand.pdb


 37 36  0  0  0  0  0  0  0  0999 V2000
  -41.9458   59.9336   67.3991 O   0  0  0  0  0  0  0  0  0  0  0  0
  -42.0832   59.5727   66.2705 C   0  0  0  0  0  0  0  0  0  0  0  0
  -43.3671   59.0752   65.6913 C   0  0  0  0  0  0  0  0  0  0  0  0
  -43.3874   57.5697   65.5060 C   0  0  0  0  0  0  0  0  0  0  0  0
  -44.7889   57.0070   65.4077 C   0  0  0  0  0  0  0  0  0  0  0  0
  -45.8113   57.9676   64.8474 C   0  0  0  0  0  0  0  0  0  0  0  0
  -47.1755   57.8422   65.4763 C   0  0  0  0  0  0  0  0  0  0  0  0
  -48.2868   58.0267   64.4781 C   0  0  0  0  0  0  0  0  0  0  0  0
  -49.6750   57.9878   65.0452 C   0  0  0  0  0  0  0  0  0  0  0  0
  -50.2646   59.3211   65.2350 C   0  0  0  0  0  0  0  0  0  0  0  0
  -50.8787   60.0680   64.3442 C   0  0  0  0  0  0  0  0  0  0  0  0
  -51.1566   59.7501   62.9207 C   0  0  0  0  0  0  0  0  0  0  0  0
  -50.0979   60.1962   61.9331 C   0  0  0  0  0  0  0  0  0  0  0  0
  -49.7761   59.1418   60.9100 C   0  0  0  0  0  0  0  0  0  0  0  0
  -50.1614   57.7400   61.3081 C   0  0  0  0  0  0  0  0  0  0  0  0
  -50.0187   56.7524   60.1710 C   0  0  0  0  0  0  0  0  0  0  0  0
  -49.5579   57.3472   58.8696 C   0  0  0  0  0  0  0  0  0  0  0  0
  -48.4722   56.5777   58.2306 C   0  0  0  0  0  0  0  0  0  0  0  0
  -47.4451   56.1332   59.1707 C   0  0  0  0  0  0  0  0  0  0  0  0
  -41.0991   59.5581   65.3715 O   0  0  0  0  0  0  0  0  0  0  0  0
  -41.0373   60.6535   64.4312 C   0  0  0  0  0  0  0  0  0  0  0  0
  -39.9878   61.6152   64.9393 C   0  0  0  0  0  0  0  0  0  0  0  0
  -40.5645   62.4721   65.9249 O   0  0  0  0  0  0  0  0  0  0  0  0
  -40.8483   61.9434   66.6869 H   0  0  0  0  0  0  0  0  0  0  0  0
  -38.7607   60.9665   65.5325 C   0  0  0  0  0  0  0  0  0  0  0  0
  -37.8498   62.0032   65.9498 O   0  0  0  0  0  0  0  0  0  0  0  0
  -36.4365   62.1434   65.2340 P   0  0  0  0  0  0  0  0  0  0  0  0
  -35.6771   60.9118   65.5306 O   0  0  0  0  0  0  0  0  0  0  0  0
  -36.7036   62.5026   63.8274 O   0  0  0  0  0  0  0  0  0  0  0  0
  -37.1753   61.7754   63.3919 H   0  0  0  0  0  0  0  0  0  0  0  0
  -35.6669   63.3647   65.8921 O   0  0  0  0  0  0  0  0  0  0  0  0
  -34.8750   64.2453   65.0607 C   0  0  0  0  0  0  0  0  0  0  0  0
  -33.5477   63.5482   64.8660 C   0  0  0  0  0  0  0  0  0  0  0  0
  -32.3345   64.4460   64.7257 N   0  0  0  0  0  0  0  0  0  0  0  0
  -32.6900   65.7308   64.0491 C   0  0  0  0  0  0  0  0  0  0  0  0
  -31.2894   63.7513   63.9130 C   0  0  0  0  0  0  0  0  0  0  0  0
  -31.7809   64.7561   66.0810 C   0  0  0  0  0  0  0  0  0  0  0  0
 34 33  1  0  0  0
 34 35  1  0  0  0
 34 36  1  0  0  0
 34 37  1  0  0  0
 22 23  1  0  0  0
 22 25  1  0  0  0
 22 21  1  0  0  0
 23 24  1  0  0  0
 27 26  1  0  0  0
 27 28  2  0  0  0
 27 31  1  0  0  0
 27 29  1  0  0  0
 25 26  1  0  0  0
 32 33  1  0  0  0
 32 31  1  0  0  0
 29 30  1  0  0  0
 20 21  1  0  0  0
 20  2  1  0  0  0
  1  2  2  0  0  0
  2  3  1  0  0  0
  3  4  1  0  0  0
  4  5  1  0  0  0
  5  6  1  0  0  0
  6  7  1  0  0  0
  7  8  1  0  0  0
  8  9  1  0  0  0
  9 10  1  0  0  0
 10 11  2  0  0  0
 11 12  1  0  0  0
 12 13  1  0  0  0
 13 14  1  0  0  0
 14 15  1  0  0  0
 15 16  1  0  0  0
 16 17  1  0  0  0
 17 18  1  0  0  0
 18 19  1  0  0  0
M  CHG 1  28  -1
M  END
> <minimizedAffinity>
-8.20180

> <CNNscore>
0.7277192473

> <CNNaffinity>
6.3419933319

> <CNN_VS>
4.6151905060

> <CNNaffinity_variance>
0.3041402996

$$$$
/media/chris/experiments/cd1a-new-docking/inputs/ligands/4x6c_ligand.pdb


 37 36  0  0  0  0  0  0  0  0999 V2000
  -41.6872   60.8861   62.5081 O   0  0  0  0  0  0  0  0  0  0  0  0
  -41.1170   60.6658   63.5325 C   0  0  0  0  0  0  0  0  0  0  0  0
  -41.7580   60.0839   64.7498 C   0  0  0  0  0  0  0  0  0  0  0  0
  -43.2476   59.8523   64.5796 C   0  0  0  0  0  0  0  0  0  0  0  0
  -43.7291   58.5894   65.2605 C   0  0  0  0  0  0  0  0  0  0  0  0
  -45.1281   58.1667   64.8788 C   0  0  0  0  0  0  0  0  0  0  0  0
  -46.1925   59.1637   65.2602 C   0  0  0  0  0  0  0  0  0  0  0  0
  -47.5405   58.8096   64.6920 C   0  0  0  0  0  0  0  0  0  0  0  0
  -48.5859   59.8802   64.7991 C   0  0  0  0  0  0  0  0  0  0  0  0
  -48.7888   60.6239   63.5473 C   0  0  0  0  0  0  0  0  0  0  0  0
  -49.7080   60.4253   62.6285 C   0  0  0  0  0  0  0  0  0  0  0  0
  -50.7942   59.4130   62.6267 C   0  0  0  0  0  0  0  0  0  0  0  0
  -50.3576   57.9869   62.3604 C   0  0  0  0  0  0  0  0  0  0  0  0
  -50.6463   57.5439   60.9524 C   0  0  0  0  0  0  0  0  0  0  0  0
  -49.6908   58.0775   59.9160 C   0  0  0  0  0  0  0  0  0  0  0  0
  -49.4117   57.0799   58.8136 C   0  0  0  0  0  0  0  0  0  0  0  0
  -47.9708   56.9841   58.3959 C   0  0  0  0  0  0  0  0  0  0  0  0
  -47.5336   55.5996   58.1290 C   0  0  0  0  0  0  0  0  0  0  0  0
  -47.6207   55.2253   56.7189 C   0  0  0  0  0  0  0  0  0  0  0  0
  -39.8234   60.9191   63.7305 O   0  0  0  0  0  0  0  0  0  0  0  0
  -39.4156   61.3101   65.0605 C   0  0  0  0  0  0  0  0  0  0  0  0
  -37.9051   61.3640   65.0631 C   0  0  0  0  0  0  0  0  0  0  0  0
  -37.4705   62.4992   65.8117 O   0  0  0  0  0  0  0  0  0  0  0  0
  -37.7461   62.4015   66.7366 H   0  0  0  0  0  0  0  0  0  0  0  0
  -37.2232   60.1378   65.6198 C   0  0  0  0  0  0  0  0  0  0  0  0
  -36.6683   59.3835   64.5234 O   0  0  0  0  0  0  0  0  0  0  0  0
  -37.2117   57.9198   64.2210 P   0  0  0  0  0  0  0  0  0  0  0  0
  -36.8475   57.0756   65.3768 O   0  0  0  0  0  0  0  0  0  0  0  0
  -38.6342   58.0597   63.8523 O   0  0  0  0  0  0  0  0  0  0  0  0
  -39.1330   58.4002   64.6114 H   0  0  0  0  0  0  0  0  0  0  0  0
  -36.4495   57.3619   62.9464 O   0  0  0  0  0  0  0  0  0  0  0  0
  -35.3904   58.1432   62.3451 C   0  0  0  0  0  0  0  0  0  0  0  0
  -34.1007   57.4457   62.7139 C   0  0  0  0  0  0  0  0  0  0  0  0
  -33.1187   58.2491   63.5432 N   0  0  0  0  0  0  0  0  0  0  0  0
  -31.7104   57.8321   63.2646 C   0  0  0  0  0  0  0  0  0  0  0  0
  -33.4010   58.0382   64.9961 C   0  0  0  0  0  0  0  0  0  0  0  0
  -33.2604   59.7031   63.2186 C   0  0  0  0  0  0  0  0  0  0  0  0
 34 33  1  0  0  0
 34 35  1  0  0  0
 34 36  1  0  0  0
 34 37  1  0  0  0
 22 23  1  0  0  0
 22 25  1  0  0  0
 22 21  1  0  0  0
 23 24  1  0  0  0
 27 26  1  0  0  0
 27 28  2  0  0  0
 27 31  1  0  0  0
 27 29  1  0  0  0
 25 26  1  0  0  0
 32 33  1  0  0  0
 32 31  1  0  0  0
 29 30  1  0  0  0
 20 21  1  0  0  0
 20  2  1  0  0  0
  1  2  2  0  0  0
  2  3  1  0  0  0
  3  4  1  0  0  0
  4  5  1  0  0  0
  5  6  1  0  0  0
  6  7  1  0  0  0
  7  8  1  0  0  0
  8  9  1  0  0  0
  9 10  1  0  0  0
 10 11  2  0  0  0
 11 12  1  0  0  0
 12 13  1  0  0  0
 13 14  1  0  0  0
 14 15  1  0  0  0
 15 16  1  0  0  0
 16 17  1  0  0  0
 17 18  1  0  0  0
 18 19  1  0  0  0
M  CHG 1  28  -1
M  END
> <minimizedAffinity>
-7.72746

> <CNNscore>
0.7041892409

> <CNNaffinity>
6.4555578232

> <CNN_VS>
4.5459342003

> <CNNaffinity_variance>
0.5143923163

$$$$
/media/chris/experiments/cd1a-new-docking/inputs/ligands/4x6c_ligand.pdb


 37 36  0  0  0  0  0  0  0  0999 V2000
  -40.8434   59.2386   65.2945 O   0  0  0  0  0  0  0  0  0  0  0  0
  -41.3583   60.0388   64.5752 C   0  0  0  0  0  0  0  0  0  0  0  0
  -42.8176   60.0766   64.2584 C   0  0  0  0  0  0  0  0  0  0  0  0
  -43.6909   59.7591   65.4575 C   0  0  0  0  0  0  0  0  0  0  0  0
  -45.1656   59.9580   65.1815 C   0  0  0  0  0  0  0  0  0  0  0  0
  -46.0845   59.2247   66.1301 C   0  0  0  0  0  0  0  0  0  0  0  0
  -47.5407   59.5772   65.9637 C   0  0  0  0  0  0  0  0  0  0  0  0
  -47.7361   60.8851   65.2449 C   0  0  0  0  0  0  0  0  0  0  0  0
  -48.5041   60.8046   63.9589 C   0  0  0  0  0  0  0  0  0  0  0  0
  -49.8783   60.3111   64.1305 C   0  0  0  0  0  0  0  0  0  0  0  0
  -50.4399   59.2676   63.5611 C   0  0  0  0  0  0  0  0  0  0  0  0
  -49.8260   58.3030   62.6140 C   0  0  0  0  0  0  0  0  0  0  0  0
  -49.8081   58.7347   61.1618 C   0  0  0  0  0  0  0  0  0  0  0  0
  -50.1129   57.6057   60.2160 C   0  0  0  0  0  0  0  0  0  0  0  0
  -49.2749   56.3696   60.4203 C   0  0  0  0  0  0  0  0  0  0  0  0
  -48.4261   56.0361   59.2133 C   0  0  0  0  0  0  0  0  0  0  0  0
  -48.1410   57.1954   58.2998 C   0  0  0  0  0  0  0  0  0  0  0  0
  -47.0529   56.9251   57.3395 C   0  0  0  0  0  0  0  0  0  0  0  0
  -47.4622   56.0755   56.2229 C   0  0  0  0  0  0  0  0  0  0  0  0
  -40.6928   61.0083   63.9475 O   0  0  0  0  0  0  0  0  0  0  0  0
  -41.2150   61.4638   62.6795 C   0  0  0  0  0  0  0  0  0  0  0  0
  -40.4159   60.7743   61.5976 C   0  0  0  0  0  0  0  0  0  0  0  0
  -40.7633   61.3231   60.3263 O   0  0  0  0  0  0  0  0  0  0  0  0
  -40.5149   62.2604   60.2998 H   0  0  0  0  0  0  0  0  0  0  0  0
  -38.9174   60.8584   61.7585 C   0  0  0  0  0  0  0  0  0  0  0  0
  -38.3198   59.7304   61.0882 O   0  0  0  0  0  0  0  0  0  0  0  0
  -37.6885   58.5496   61.9463 P   0  0  0  0  0  0  0  0  0  0  0  0
  -38.7067   58.1407   62.9350 O   0  0  0  0  0  0  0  0  0  0  0  0
  -37.1755   57.5514   60.9874 O   0  0  0  0  0  0  0  0  0  0  0  0
  -37.9151   57.1769   60.4837 H   0  0  0  0  0  0  0  0  0  0  0  0
  -36.4396   59.1251   62.7375 O   0  0  0  0  0  0  0  0  0  0  0  0
  -35.5125   58.2148   63.3744 C   0  0  0  0  0  0  0  0  0  0  0  0
  -34.1989   58.3845   62.6454 C   0  0  0  0  0  0  0  0  0  0  0  0
  -32.9842   58.6578   63.5098 N   0  0  0  0  0  0  0  0  0  0  0  0
  -31.8585   57.7368   63.1642 C   0  0  0  0  0  0  0  0  0  0  0  0
  -33.3392   58.4595   64.9485 C   0  0  0  0  0  0  0  0  0  0  0  0
  -32.5291   60.0684   63.3033 C   0  0  0  0  0  0  0  0  0  0  0  0
 34 33  1  0  0  0
 34 35  1  0  0  0
 34 36  1  0  0  0
 34 37  1  0  0  0
 22 23  1  0  0  0
 22 25  1  0  0  0
 22 21  1  0  0  0
 23 24  1  0  0  0
 27 26  1  0  0  0
 27 28  2  0  0  0
 27 31  1  0  0  0
 27 29  1  0  0  0
 25 26  1  0  0  0
 32 33  1  0  0  0
 32 31  1  0  0  0
 29 30  1  0  0  0
 20 21  1  0  0  0
 20  2  1  0  0  0
  1  2  2  0  0  0
  2  3  1  0  0  0
  3  4  1  0  0  0
  4  5  1  0  0  0
  5  6  1  0  0  0
  6  7  1  0  0  0
  7  8  1  0  0  0
  8  9  1  0  0  0
  9 10  1  0  0  0
 10 11  2  0  0  0
 11 12  1  0  0  0
 12 13  1  0  0  0
 13 14  1  0  0  0
 14 15  1  0  0  0
 15 16  1  0  0  0
 16 17  1  0  0  0
 17 18  1  0  0  0
 18 19  1  0  0  0
M  CHG 1  28  -1
M  END
> <minimizedAffinity>
-8.04610

> <CNNscore>
0.7039906979

> <CNNaffinity>
6.4646844864

> <CNN_VS>
4.5510778427

> <CNNaffinity_variance>
0.3361580968

$$$$
/media/chris/experiments/cd1a-new-docking/inputs/ligands/4x6c_ligand.pdb


 37 36  0  0  0  0  0  0  0  0999 V2000
  -41.9601   58.2860   66.2198 O   0  0  0  0  0  0  0  0  0  0  0  0
  -42.3559   59.2386   65.6208 C   0  0  0  0  0  0  0  0  0  0  0  0
  -43.7212   59.3575   65.0266 C   0  0  0  0  0  0  0  0  0  0  0  0
  -44.3955   58.0140   64.8220 C   0  0  0  0  0  0  0  0  0  0  0  0
  -45.5943   57.8131   65.7237 C   0  0  0  0  0  0  0  0  0  0  0  0
  -46.2071   59.0916   66.2448 C   0  0  0  0  0  0  0  0  0  0  0  0
  -47.5412   59.4249   65.6274 C   0  0  0  0  0  0  0  0  0  0  0  0
  -48.1503   58.2511   64.9087 C   0  0  0  0  0  0  0  0  0  0  0  0
  -49.6410   58.1286   65.0232 C   0  0  0  0  0  0  0  0  0  0  0  0
  -50.3163   59.4158   65.2433 C   0  0  0  0  0  0  0  0  0  0  0  0
  -50.9540   60.1554   64.3631 C   0  0  0  0  0  0  0  0  0  0  0  0
  -51.1778   59.8725   62.9228 C   0  0  0  0  0  0  0  0  0  0  0  0
  -50.0370   60.2466   61.9988 C   0  0  0  0  0  0  0  0  0  0  0  0
  -49.6643   59.1356   61.0560 C   0  0  0  0  0  0  0  0  0  0  0  0
  -50.3230   57.8123   61.3508 C   0  0  0  0  0  0  0  0  0  0  0  0
  -50.0501   56.7760   60.2830 C   0  0  0  0  0  0  0  0  0  0  0  0
  -49.4602   57.3178   59.0108 C   0  0  0  0  0  0  0  0  0  0  0  0
  -48.5113   56.3876   58.3676 C   0  0  0  0  0  0  0  0  0  0  0  0
  -47.2710   56.2114   59.1206 C   0  0  0  0  0  0  0  0  0  0  0  0
  -41.6234   60.3288   65.3937 O   0  0  0  0  0  0  0  0  0  0  0  0
  -40.1888   60.2069   65.5168 C   0  0  0  0  0  0  0  0  0  0  0  0
  -39.5904   61.5086   65.0352 C   0  0  0  0  0  0  0  0  0  0  0  0
  -39.7990   62.5214   66.0194 O   0  0  0  0  0  0  0  0  0  0  0  0
  -39.3275   62.2837   66.8331 H   0  0  0  0  0  0  0  0  0  0  0  0
  -38.1165   61.4538   64.7141 C   0  0  0  0  0  0  0  0  0  0  0  0
  -37.4117   62.2962   65.6481 O   0  0  0  0  0  0  0  0  0  0  0  0
  -35.9607   61.8765   66.1459 P   0  0  0  0  0  0  0  0  0  0  0  0
  -34.9891   62.6659   65.3623 O   0  0  0  0  0  0  0  0  0  0  0  0
  -35.9631   61.9942   67.6173 O   0  0  0  0  0  0  0  0  0  0  0  0
  -36.0953   62.9221   67.8673 H   0  0  0  0  0  0  0  0  0  0  0  0
  -35.7418   60.3441   65.7983 O   0  0  0  0  0  0  0  0  0  0  0  0
  -34.6585   59.9552   64.9214 C   0  0  0  0  0  0  0  0  0  0  0  0
  -35.3087   59.5229   63.6268 C   0  0  0  0  0  0  0  0  0  0  0  0
  -35.0858   58.0813   63.2146 N   0  0  0  0  0  0  0  0  0  0  0  0
  -35.7834   57.7745   61.9285 C   0  0  0  0  0  0  0  0  0  0  0  0
  -35.6159   57.1703   64.2749 C   0  0  0  0  0  0  0  0  0  0  0  0
  -33.6211   57.8317   63.0361 C   0  0  0  0  0  0  0  0  0  0  0  0
 34 33  1  0  0  0
 34 35  1  0  0  0
 34 36  1  0  0  0
 34 37  1  0  0  0
 22 23  1  0  0  0
 22 25  1  0  0  0
 22 21  1  0  0  0
 23 24  1  0  0  0
 27 26  1  0  0  0
 27 28  2  0  0  0
 27 31  1  0  0  0
 27 29  1  0  0  0
 25 26  1  0  0  0
 32 33  1  0  0  0
 32 31  1  0  0  0
 29 30  1  0  0  0
 20 21  1  0  0  0
 20  2  1  0  0  0
  1  2  2  0  0  0
  2  3  1  0  0  0
  3  4  1  0  0  0
  4  5  1  0  0  0
  5  6  1  0  0  0
  6  7  1  0  0  0
  7  8  1  0  0  0
  8  9  1  0  0  0
  9 10  1  0  0  0
 10 11  2  0  0  0
 11 12  1  0  0  0
 12 13  1  0  0  0
 13 14  1  0  0  0
 14 15  1  0  0  0
 15 16  1  0  0  0
 16 17  1  0  0  0
 17 18  1  0  0  0
 18 19  1  0  0  0
M  CHG 1  28  -1
M  END
> <minimizedAffinity>
-8.19495

> <CNNscore>
0.6834415197

> <CNNaffinity>
6.5967369080

> <CNN_VS>
4.5084838867

> <CNNaffinity_variance>
0.3149722517

$$$$
/media/chris/experiments/cd1a-new-docking/inputs/ligands/4x6c_ligand.pdb


 37 36  0  0  0  0  0  0  0  0999 V2000
  -44.0837   57.4829   64.0451 O   0  0  0  0  0  0  0  0  0  0  0  0
  -44.2405   57.6853   65.2102 C   0  0  0  0  0  0  0  0  0  0  0  0
  -45.3474   57.1053   66.0285 C   0  0  0  0  0  0  0  0  0  0  0  0
  -46.7099   57.6586   65.6561 C   0  0  0  0  0  0  0  0  0  0  0  0
  -46.9448   59.0551   66.1899 C   0  0  0  0  0  0  0  0  0  0  0  0
  -46.7479   60.1553   65.1737 C   0  0  0  0  0  0  0  0  0  0  0  0
  -47.8910   61.1356   65.1063 C   0  0  0  0  0  0  0  0  0  0  0  0
  -49.1527   60.5103   64.5747 C   0  0  0  0  0  0  0  0  0  0  0  0
  -49.3725   60.6588   63.0982 C   0  0  0  0  0  0  0  0  0  0  0  0
  -50.7331   60.3001   62.6725 C   0  0  0  0  0  0  0  0  0  0  0  0
  -51.1664   59.1340   62.2471 C   0  0  0  0  0  0  0  0  0  0  0  0
  -50.3999   57.8701   62.1073 C   0  0  0  0  0  0  0  0  0  0  0  0
  -50.8008   56.9885   60.9423 C   0  0  0  0  0  0  0  0  0  0  0  0
  -50.4402   57.5861   59.6100 C   0  0  0  0  0  0  0  0  0  0  0  0
  -48.9640   57.6007   59.3055 C   0  0  0  0  0  0  0  0  0  0  0  0
  -48.3531   56.2169   59.3211 C   0  0  0  0  0  0  0  0  0  0  0  0
  -46.9543   56.1360   58.7763 C   0  0  0  0  0  0  0  0  0  0  0  0
  -46.8034   56.7917   57.4623 C   0  0  0  0  0  0  0  0  0  0  0  0
  -47.0901   55.9060   56.3355 C   0  0  0  0  0  0  0  0  0  0  0  0
  -43.4467   58.4687   65.9402 O   0  0  0  0  0  0  0  0  0  0  0  0
  -43.0376   59.7285   65.3627 C   0  0  0  0  0  0  0  0  0  0  0  0
  -42.2425   60.4624   66.4179 C   0  0  0  0  0  0  0  0  0  0  0  0
  -42.9340   60.3985   67.6653 O   0  0  0  0  0  0  0  0  0  0  0  0
  -42.9932   59.4748   67.9552 H   0  0  0  0  0  0  0  0  0  0  0  0
  -40.8366   59.9543   66.6269 C   0  0  0  0  0  0  0  0  0  0  0  0
  -40.1419   59.9937   65.3641 O   0  0  0  0  0  0  0  0  0  0  0  0
  -39.1745   61.2127   65.0363 P   0  0  0  0  0  0  0  0  0  0  0  0
  -39.1089   61.3297   63.5655 O   0  0  0  0  0  0  0  0  0  0  0  0
  -39.6526   62.3627   65.8287 O   0  0  0  0  0  0  0  0  0  0  0  0
  -40.5413   62.6132   65.5314 H   0  0  0  0  0  0  0  0  0  0  0  0
  -37.7234   60.8496   65.5648 O   0  0  0  0  0  0  0  0  0  0  0  0
  -36.6251   60.7428   64.6289 C   0  0  0  0  0  0  0  0  0  0  0  0
  -35.9418   59.4306   64.9405 C   0  0  0  0  0  0  0  0  0  0  0  0
  -35.7358   58.4890   63.7707 N   0  0  0  0  0  0  0  0  0  0  0  0
  -34.3309   58.5579   63.2642 C   0  0  0  0  0  0  0  0  0  0  0  0
  -36.6633   58.8619   62.6590 C   0  0  0  0  0  0  0  0  0  0  0  0
  -36.0209   57.0844   64.2014 C   0  0  0  0  0  0  0  0  0  0  0  0
 34 33  1  0  0  0
 34 35  1  0  0  0
 34 36  1  0  0  0
 34 37  1  0  0  0
 22 23  1  0  0  0
 22 25  1  0  0  0
 22 21  1  0  0  0
 23 24  1  0  0  0
 27 26  1  0  0  0
 27 28  2  0  0  0
 27 31  1  0  0  0
 27 29  1  0  0  0
 25 26  1  0  0  0
 32 33  1  0  0  0
 32 31  1  0  0  0
 29 30  1  0  0  0
 20 21  1  0  0  0
 20  2  1  0  0  0
  1  2  2  0  0  0
  2  3  1  0  0  0
  3  4  1  0  0  0
  4  5  1  0  0  0
  5  6  1  0  0  0
  6  7  1  0  0  0
  7  8  1  0  0  0
  8  9  1  0  0  0
  9 10  1  0  0  0
 10 11  2  0  0  0
 11 12  1  0  0  0
 12 13  1  0  0  0
 13 14  1  0  0  0
 14 15  1  0  0  0
 15 16  1  0  0  0
 16 17  1  0  0  0
 17 18  1  0  0  0
 18 19  1  0  0  0
M  CHG 1  28  -1
M  END
> <minimizedAffinity>
-7.68957

> <CNNscore>
0.6734268665

> <CNNaffinity>
6.6208066940

> <CNN_VS>
4.4586291313

> <CNNaffinity_variance>
0.3201830685

$$$$
