/media/chris/experiments/cd1a-new-docking/inputs/ligands/6nux_ligand.pdb


 17 16  0  0  0  0  0  0  0  0999 V2000
  -48.5478   59.1819   61.1209 C   0  0  0  0  0  0  0  0  0  0  0  0
  -49.7728   60.0346   60.9501 C   0  0  0  0  0  0  0  0  0  0  0  0
  -48.4791   58.3323   62.1554 C   0  0  0  0  0  0  0  0  0  0  0  0
  -47.4001   59.2697   60.1371 C   0  0  0  0  0  0  0  0  0  0  0  0
  -46.8724   57.8797   59.7974 C   0  0  0  0  0  0  0  0  0  0  0  0
  -46.0660   57.4769   57.0778 C   0  0  0  0  0  0  0  0  0  0  0  0
  -47.4087   57.0015   57.5425 C   0  0  0  0  0  0  0  0  0  0  0  0
  -48.3279   56.3169   56.5763 C   0  0  0  0  0  0  0  0  0  0  0  0
  -47.7903   57.1902   58.8144 C   0  0  0  0  0  0  0  0  0  0  0  0
  -49.6239   58.2358   63.1375 C   0  0  0  0  0  0  0  0  0  0  0  0
  -49.2525   58.9214   64.4467 C   0  0  0  0  0  0  0  0  0  0  0  0
  -49.0875   57.8916   65.5433 C   0  0  0  0  0  0  0  0  0  0  0  0
  -50.2435   57.5680   66.4379 C   0  0  0  0  0  0  0  0  0  0  0  0
  -47.9165   57.2598   65.7120 C   0  0  0  0  0  0  0  0  0  0  0  0
  -47.5673   54.9252   66.2211 O   0  0  0  0  0  0  0  0  0  0  0  0
  -47.7341   56.2249   66.7987 C   0  0  0  0  0  0  0  0  0  0  0  0
  -47.4513   54.2702   66.9271 H   0  0  0  0  0  0  0  0  0  0  0  0
  6  7  1  0  0  0
 15 16  1  0  0  0
 15 17  1  0  0  0
  7  8  1  0  0  0
  7  9  2  0  0  0
  9  5  1  0  0  0
  5  4  1  0  0  0
  4  1  1  0  0  0
  1  2  1  0  0  0
  1  3  2  0  0  0
  3 10  1  0  0  0
 10 11  1  0  0  0
 11 12  1  0  0  0
 12 13  1  0  0  0
 12 14  2  0  0  0
 14 16  1  0  0  0
M  END
> <minimizedAffinity>
-7.55755

> <CNNscore>
0.7362989783

> <CNNaffinity>
6.0731325150

> <CNN_VS>
4.4716410637

> <CNNaffinity_variance>
0.1895431727

$$$$
/media/chris/experiments/cd1a-new-docking/inputs/ligands/6nux_ligand.pdb


 17 16  0  0  0  0  0  0  0  0999 V2000
  -49.2370   58.0533   61.6931 C   0  0  0  0  0  0  0  0  0  0  0  0
  -50.0558   57.9567   60.4373 C   0  0  0  0  0  0  0  0  0  0  0  0
  -47.9386   58.3749   61.6064 C   0  0  0  0  0  0  0  0  0  0  0  0
  -49.8638   57.7975   63.0475 C   0  0  0  0  0  0  0  0  0  0  0  0
  -49.4056   58.8416   64.0605 C   0  0  0  0  0  0  0  0  0  0  0  0
  -47.2321   59.9040   65.5954 C   0  0  0  0  0  0  0  0  0  0  0  0
  -47.9554   58.6784   66.0639 C   0  0  0  0  0  0  0  0  0  0  0  0
  -47.5339   58.0104   67.3379 C   0  0  0  0  0  0  0  0  0  0  0  0
  -48.9720   58.1772   65.3468 C   0  0  0  0  0  0  0  0  0  0  0  0
  -47.3086   58.6371   60.2579 C   0  0  0  0  0  0  0  0  0  0  0  0
  -46.2937   57.5482   59.9312 C   0  0  0  0  0  0  0  0  0  0  0  0
  -46.5896   56.9541   58.5711 C   0  0  0  0  0  0  0  0  0  0  0  0
  -46.1296   57.6631   57.3354 C   0  0  0  0  0  0  0  0  0  0  0  0
  -47.2513   55.7923   58.4661 C   0  0  0  0  0  0  0  0  0  0  0  0
  -48.7308   55.7711   56.5577 O   0  0  0  0  0  0  0  0  0  0  0  0
  -47.5518   55.1810   57.1166 C   0  0  0  0  0  0  0  0  0  0  0  0
  -48.9135   55.3715   55.6929 H   0  0  0  0  0  0  0  0  0  0  0  0
  6  7  1  0  0  0
 15 16  1  0  0  0
 15 17  1  0  0  0
  7  8  1  0  0  0
  7  9  2  0  0  0
  9  5  1  0  0  0
  5  4  1  0  0  0
  4  1  1  0  0  0
  1  2  1  0  0  0
  1  3  2  0  0  0
  3 10  1  0  0  0
 10 11  1  0  0  0
 11 12  1  0  0  0
 12 13  1  0  0  0
 12 14  2  0  0  0
 14 16  1  0  0  0
M  END
> <minimizedAffinity>
-7.08535

> <CNNscore>
0.7311350107

> <CNNaffinity>
6.1250505447

> <CNN_VS>
4.4782390594

> <CNNaffinity_variance>
0.1330619305

$$$$
/media/chris/experiments/cd1a-new-docking/inputs/ligands/6nux_ligand.pdb


 17 16  0  0  0  0  0  0  0  0999 V2000
  -38.3715   57.5141   61.3822 C   0  0  0  0  0  0  0  0  0  0  0  0
  -39.4195   58.2012   60.5537 C   0  0  0  0  0  0  0  0  0  0  0  0
  -38.7427   56.5688   62.2570 C   0  0  0  0  0  0  0  0  0  0  0  0
  -36.9084   57.8745   61.2340 C   0  0  0  0  0  0  0  0  0  0  0  0
  -36.1015   57.3555   62.4196 C   0  0  0  0  0  0  0  0  0  0  0  0
  -33.4411   56.4567   61.8506 C   0  0  0  0  0  0  0  0  0  0  0  0
  -33.6681   57.8265   62.4135 C   0  0  0  0  0  0  0  0  0  0  0  0
  -32.4958   58.7222   62.6796 C   0  0  0  0  0  0  0  0  0  0  0  0
  -34.9119   58.2497   62.6830 C   0  0  0  0  0  0  0  0  0  0  0  0
  -40.2010   56.2004   62.4054 C   0  0  0  0  0  0  0  0  0  0  0  0
  -40.7244   56.6619   63.7601 C   0  0  0  0  0  0  0  0  0  0  0  0
  -42.2138   56.9184   63.6811 C   0  0  0  0  0  0  0  0  0  0  0  0
  -42.8210   57.3751   62.3911 C   0  0  0  0  0  0  0  0  0  0  0  0
  -42.9942   56.7294   64.7553 C   0  0  0  0  0  0  0  0  0  0  0  0
  -45.1192   56.4632   65.8711 O   0  0  0  0  0  0  0  0  0  0  0  0
  -44.4844   56.9758   64.6943 C   0  0  0  0  0  0  0  0  0  0  0  0
  -46.0740   56.6269   65.8207 H   0  0  0  0  0  0  0  0  0  0  0  0
  6  7  1  0  0  0
 15 16  1  0  0  0
 15 17  1  0  0  0
  7  8  1  0  0  0
  7  9  2  0  0  0
  9  5  1  0  0  0
  5  4  1  0  0  0
  4  1  1  0  0  0
  1  2  1  0  0  0
  1  3  2  0  0  0
  3 10  1  0  0  0
 10 11  1  0  0  0
 11 12  1  0  0  0
 12 13  1  0  0  0
 12 14  2  0  0  0
 14 16  1  0  0  0
M  END
> <minimizedAffinity>
-6.95061

> <CNNscore>
0.7168787122

> <CNNaffinity>
5.7916321754

> <CNN_VS>
4.1518979073

> <CNNaffinity_variance>
0.0510631576

$$$$
/media/chris/experiments/cd1a-new-docking/inputs/ligands/6nux_ligand.pdb


 17 16  0  0  0  0  0  0  0  0999 V2000
  -50.0042   58.4130   60.9752 C   0  0  0  0  0  0  0  0  0  0  0  0
  -49.9866   59.9097   60.8467 C   0  0  0  0  0  0  0  0  0  0  0  0
  -49.7127   57.8527   62.1574 C   0  0  0  0  0  0  0  0  0  0  0  0
  -50.3519   57.5383   59.7891 C   0  0  0  0  0  0  0  0  0  0  0  0
  -49.2467   56.5206   59.5262 C   0  0  0  0  0  0  0  0  0  0  0  0
  -46.5484   57.3416   60.0303 C   0  0  0  0  0  0  0  0  0  0  0  0
  -47.0940   57.3662   58.6351 C   0  0  0  0  0  0  0  0  0  0  0  0
  -46.2214   57.8251   57.5059 C   0  0  0  0  0  0  0  0  0  0  0  0
  -48.3573   56.9845   58.3958 C   0  0  0  0  0  0  0  0  0  0  0  0
  -49.3706   58.7206   63.3466 C   0  0  0  0  0  0  0  0  0  0  0  0
  -48.0947   58.2202   64.0128 C   0  0  0  0  0  0  0  0  0  0  0  0
  -48.4242   57.5568   65.3325 C   0  0  0  0  0  0  0  0  0  0  0  0
  -49.6816   57.9269   66.0560 C   0  0  0  0  0  0  0  0  0  0  0  0
  -47.6031   56.6326   65.8525 C   0  0  0  0  0  0  0  0  0  0  0  0
  -47.1170   56.5135   68.2150 O   0  0  0  0  0  0  0  0  0  0  0  0
  -47.9178   55.9557   67.1671 C   0  0  0  0  0  0  0  0  0  0  0  0
  -47.3273   56.0719   69.0526 H   0  0  0  0  0  0  0  0  0  0  0  0
  6  7  1  0  0  0
 15 16  1  0  0  0
 15 17  1  0  0  0
  7  8  1  0  0  0
  7  9  2  0  0  0
  9  5  1  0  0  0
  5  4  1  0  0  0
  4  1  1  0  0  0
  1  2  1  0  0  0
  1  3  2  0  0  0
  3 10  1  0  0  0
 10 11  1  0  0  0
 11 12  1  0  0  0
 12 13  1  0  0  0
 12 14  2  0  0  0
 14 16  1  0  0  0
M  END
> <minimizedAffinity>
-7.83026

> <CNNscore>
0.7108893394

> <CNNaffinity>
5.9734568596

> <CNN_VS>
4.2464666367

> <CNNaffinity_variance>
0.0812508762

$$$$
/media/chris/experiments/cd1a-new-docking/inputs/ligands/6nux_ligand.pdb


 17 16  0  0  0  0  0  0  0  0999 V2000
  -49.9984   58.5503   60.9288 C   0  0  0  0  0  0  0  0  0  0  0  0
  -49.9352   60.0458   60.8002 C   0  0  0  0  0  0  0  0  0  0  0  0
  -49.7318   57.9820   62.1131 C   0  0  0  0  0  0  0  0  0  0  0  0
  -50.3640   57.6860   59.7405 C   0  0  0  0  0  0  0  0  0  0  0  0
  -49.2793   56.6474   59.4741 C   0  0  0  0  0  0  0  0  0  0  0  0
  -48.3026   56.3807   56.7939 C   0  0  0  0  0  0  0  0  0  0  0  0
  -47.5408   57.1950   57.7945 C   0  0  0  0  0  0  0  0  0  0  0  0
  -46.2643   57.8666   57.3862 C   0  0  0  0  0  0  0  0  0  0  0  0
  -47.9941   57.3203   59.0507 C   0  0  0  0  0  0  0  0  0  0  0  0
  -49.3719   58.8397   63.3044 C   0  0  0  0  0  0  0  0  0  0  0  0
  -49.5146   58.0374   64.5920 C   0  0  0  0  0  0  0  0  0  0  0  0
  -48.1527   57.5944   65.0810 C   0  0  0  0  0  0  0  0  0  0  0  0
  -48.0510   56.6302   66.2219 C   0  0  0  0  0  0  0  0  0  0  0  0
  -47.0374   58.0512   64.4927 C   0  0  0  0  0  0  0  0  0  0  0  0
  -44.7937   57.4367   63.8447 O   0  0  0  0  0  0  0  0  0  0  0  0
  -45.6684   57.6163   64.9641 C   0  0  0  0  0  0  0  0  0  0  0  0
  -43.9194   57.1580   64.1590 H   0  0  0  0  0  0  0  0  0  0  0  0
  6  7  1  0  0  0
 15 16  1  0  0  0
 15 17  1  0  0  0
  7  8  1  0  0  0
  7  9  2  0  0  0
  9  5  1  0  0  0
  5  4  1  0  0  0
  4  1  1  0  0  0
  1  2  1  0  0  0
  1  3  2  0  0  0
  3 10  1  0  0  0
 10 11  1  0  0  0
 11 12  1  0  0  0
 12 13  1  0  0  0
 12 14  2  0  0  0
 14 16  1  0  0  0
M  END
> <minimizedAffinity>
-7.37946

> <CNNscore>
0.7047136426

> <CNNaffinity>
5.8905549049

> <CNN_VS>
4.1511545181

> <CNNaffinity_variance>
0.1159292236

$$$$
/media/chris/experiments/cd1a-new-docking/inputs/ligands/6nux_ligand.pdb


 17 16  0  0  0  0  0  0  0  0999 V2000
  -39.6008   57.1867   61.5056 C   0  0  0  0  0  0  0  0  0  0  0  0
  -39.2705   58.2861   60.5365 C   0  0  0  0  0  0  0  0  0  0  0  0
  -38.6212   56.6481   62.2451 C   0  0  0  0  0  0  0  0  0  0  0  0
  -41.0229   56.6893   61.6566 C   0  0  0  0  0  0  0  0  0  0  0  0
  -41.9105   57.7685   62.2679 C   0  0  0  0  0  0  0  0  0  0  0  0
  -41.2546   57.9320   65.0521 C   0  0  0  0  0  0  0  0  0  0  0  0
  -42.5167   57.2529   64.6152 C   0  0  0  0  0  0  0  0  0  0  0  0
  -43.4321   56.6577   65.6423 C   0  0  0  0  0  0  0  0  0  0  0  0
  -42.8258   57.1727   63.3125 C   0  0  0  0  0  0  0  0  0  0  0  0
  -37.2007   57.1443   62.1032 C   0  0  0  0  0  0  0  0  0  0  0  0
  -36.7626   57.8559   63.3774 C   0  0  0  0  0  0  0  0  0  0  0  0
  -35.2519   57.8850   63.4626 C   0  0  0  0  0  0  0  0  0  0  0  0
  -34.5879   58.2264   64.7602 C   0  0  0  0  0  0  0  0  0  0  0  0
  -34.5047   57.5969   62.3867 C   0  0  0  0  0  0  0  0  0  0  0  0
  -32.4885   58.8180   61.8624 O   0  0  0  0  0  0  0  0  0  0  0  0
  -32.9946   57.6161   62.4537 C   0  0  0  0  0  0  0  0  0  0  0  0
  -31.5197   58.8191   61.9110 H   0  0  0  0  0  0  0  0  0  0  0  0
  6  7  1  0  0  0
 15 16  1  0  0  0
 15 17  1  0  0  0
  7  8  1  0  0  0
  7  9  2  0  0  0
  9  5  1  0  0  0
  5  4  1  0  0  0
  4  1  1  0  0  0
  1  2  1  0  0  0
  1  3  2  0  0  0
  3 10  1  0  0  0
 10 11  1  0  0  0
 11 12  1  0  0  0
 12 13  1  0  0  0
 12 14  2  0  0  0
 14 16  1  0  0  0
M  END
> <minimizedAffinity>
-6.58278

> <CNNscore>
0.6211263537

> <CNNaffinity>
5.7464547157

> <CNN_VS>
3.5692744255

> <CNNaffinity_variance>
0.0260208044

$$$$
/media/chris/experiments/cd1a-new-docking/inputs/ligands/6nux_ligand.pdb


 17 16  0  0  0  0  0  0  0  0999 V2000
  -37.8443   57.1985   62.7057 C   0  0  0  0  0  0  0  0  0  0  0  0
  -38.0705   57.5820   64.1405 C   0  0  0  0  0  0  0  0  0  0  0  0
  -38.8373   56.6178   62.0177 C   0  0  0  0  0  0  0  0  0  0  0  0
  -36.5142   57.4660   62.0334 C   0  0  0  0  0  0  0  0  0  0  0  0
  -35.3605   57.2097   62.9975 C   0  0  0  0  0  0  0  0  0  0  0  0
  -32.8282   56.5016   61.8594 C   0  0  0  0  0  0  0  0  0  0  0  0
  -33.0946   57.9143   62.2816 C   0  0  0  0  0  0  0  0  0  0  0  0
  -32.0284   58.9536   62.1077 C   0  0  0  0  0  0  0  0  0  0  0  0
  -34.2782   58.2488   62.8166 C   0  0  0  0  0  0  0  0  0  0  0  0
  -40.1691   56.3534   62.6815 C   0  0  0  0  0  0  0  0  0  0  0  0
  -41.3061   56.8391   61.7907 C   0  0  0  0  0  0  0  0  0  0  0  0
  -42.0837   57.9320   62.4914 C   0  0  0  0  0  0  0  0  0  0  0  0
  -43.5455   57.7490   62.7579 C   0  0  0  0  0  0  0  0  0  0  0  0
  -41.4702   59.0581   62.8843 C   0  0  0  0  0  0  0  0  0  0  0  0
  -41.3291   60.9704   64.3522 O   0  0  0  0  0  0  0  0  0  0  0  0
  -42.2293   60.1587   63.5898 C   0  0  0  0  0  0  0  0  0  0  0  0
  -41.8269   61.6723   64.7999 H   0  0  0  0  0  0  0  0  0  0  0  0
  6  7  1  0  0  0
 15 16  1  0  0  0
 15 17  1  0  0  0
  7  8  1  0  0  0
  7  9  2  0  0  0
  9  5  1  0  0  0
  5  4  1  0  0  0
  4  1  1  0  0  0
  1  2  1  0  0  0
  1  3  2  0  0  0
  3 10  1  0  0  0
 10 11  1  0  0  0
 11 12  1  0  0  0
 12 13  1  0  0  0
 12 14  2  0  0  0
 14 16  1  0  0  0
M  END
> <minimizedAffinity>
-6.71408

> <CNNscore>
0.6194931865

> <CNNaffinity>
5.6051392555

> <CNN_VS>
3.4723455906

> <CNNaffinity_variance>
0.0782195479

$$$$
/media/chris/experiments/cd1a-new-docking/inputs/ligands/6nux_ligand.pdb


 17 16  0  0  0  0  0  0  0  0999 V2000
  -48.2557   60.4581   61.7038 C   0  0  0  0  0  0  0  0  0  0  0  0
  -49.4590   60.3874   60.8071 C   0  0  0  0  0  0  0  0  0  0  0  0
  -47.0644   60.0603   61.2354 C   0  0  0  0  0  0  0  0  0  0  0  0
  -48.3760   60.9769   63.1212 C   0  0  0  0  0  0  0  0  0  0  0  0
  -49.7760   60.7253   63.6714 C   0  0  0  0  0  0  0  0  0  0  0  0
  -49.7357   57.8605   63.6513 C   0  0  0  0  0  0  0  0  0  0  0  0
  -49.6842   58.6044   64.9508 C   0  0  0  0  0  0  0  0  0  0  0  0
  -49.6142   57.8417   66.2394 C   0  0  0  0  0  0  0  0  0  0  0  0
  -49.7049   59.9455   64.9641 C   0  0  0  0  0  0  0  0  0  0  0  0
  -46.9368   59.5469   59.8196 C   0  0  0  0  0  0  0  0  0  0  0  0
  -46.6200   58.0564   59.8276 C   0  0  0  0  0  0  0  0  0  0  0  0
  -46.9198   57.4548   58.4716 C   0  0  0  0  0  0  0  0  0  0  0  0
  -46.2787   58.0290   57.2466 C   0  0  0  0  0  0  0  0  0  0  0  0
  -47.7471   56.4050   58.3616 C   0  0  0  0  0  0  0  0  0  0  0  0
  -47.0763   54.7935   56.6927 O   0  0  0  0  0  0  0  0  0  0  0  0
  -48.0549   55.7876   57.0164 C   0  0  0  0  0  0  0  0  0  0  0  0
  -47.2838   54.4049   55.8286 H   0  0  0  0  0  0  0  0  0  0  0  0
  6  7  1  0  0  0
 15 16  1  0  0  0
 15 17  1  0  0  0
  7  8  1  0  0  0
  7  9  2  0  0  0
  9  5  1  0  0  0
  5  4  1  0  0  0
  4  1  1  0  0  0
  1  2  1  0  0  0
  1  3  2  0  0  0
  3 10  1  0  0  0
 10 11  1  0  0  0
 11 12  1  0  0  0
 12 13  1  0  0  0
 12 14  2  0  0  0
 14 16  1  0  0  0
M  END
> <minimizedAffinity>
-7.50270

> <CNNscore>
0.5981582999

> <CNNaffinity>
5.8404436111

> <CNN_VS>
3.4935097694

> <CNNaffinity_variance>
0.0403760001

$$$$
/media/chris/experiments/cd1a-new-docking/inputs/ligands/6nux_ligand.pdb


 17 16  0  0  0  0  0  0  0  0999 V2000
  -38.2785   58.3751   61.2978 C   0  0  0  0  0  0  0  0  0  0  0  0
  -38.0222   59.8374   61.5279 C   0  0  0  0  0  0  0  0  0  0  0  0
  -37.3623   57.4790   61.6903 C   0  0  0  0  0  0  0  0  0  0  0  0
  -39.5577   57.9083   60.6356 C   0  0  0  0  0  0  0  0  0  0  0  0
  -40.6658   57.7285   61.6680 C   0  0  0  0  0  0  0  0  0  0  0  0
  -42.7186   56.8416   63.4591 C   0  0  0  0  0  0  0  0  0  0  0  0
  -41.6210   55.9070   63.0510 C   0  0  0  0  0  0  0  0  0  0  0  0
  -41.6018   54.5071   63.5870 C   0  0  0  0  0  0  0  0  0  0  0  0
  -40.6573   56.3195   62.2143 C   0  0  0  0  0  0  0  0  0  0  0  0
  -36.0861   57.9383   62.3571 C   0  0  0  0  0  0  0  0  0  0  0  0
  -36.0805   57.5236   63.8234 C   0  0  0  0  0  0  0  0  0  0  0  0
  -36.9090   58.4917   64.6399 C   0  0  0  0  0  0  0  0  0  0  0  0
  -38.2152   58.0455   65.2194 C   0  0  0  0  0  0  0  0  0  0  0  0
  -36.4760   59.7425   64.8562 C   0  0  0  0  0  0  0  0  0  0  0  0
  -36.4275   61.4874   66.5250 O   0  0  0  0  0  0  0  0  0  0  0  0
  -37.2873   60.7221   65.6731 C   0  0  0  0  0  0  0  0  0  0  0  0
  -36.9586   62.1117   67.0436 H   0  0  0  0  0  0  0  0  0  0  0  0
  6  7  1  0  0  0
 15 16  1  0  0  0
 15 17  1  0  0  0
  7  8  1  0  0  0
  7  9  2  0  0  0
  9  5  1  0  0  0
  5  4  1  0  0  0
  4  1  1  0  0  0
  1  2  1  0  0  0
  1  3  2  0  0  0
  3 10  1  0  0  0
 10 11  1  0  0  0
 11 12  1  0  0  0
 12 13  1  0  0  0
 12 14  2  0  0  0
 14 16  1  0  0  0
M  END
> <minimizedAffinity>
-6.35473

> <CNNscore>
0.5971102715

> <CNNaffinity>
5.5408329964

> <CNN_VS>
3.3084883690

> <CNNaffinity_variance>
0.0206255056

$$$$
