/media/chris/experiments/cd1a-new-docking/inputs/ligands/6nux_ligand.pdb


 17 16  0  0  0  0  0  0  0  0999 V2000
  -38.4146   57.5052   61.4293 C   0  0  0  0  0  0  0  0  0  0  0  0
  -39.4909   58.1524   60.6050 C   0  0  0  0  0  0  0  0  0  0  0  0
  -38.7507   56.5714   62.3303 C   0  0  0  0  0  0  0  0  0  0  0  0
  -36.9621   57.8925   61.2477 C   0  0  0  0  0  0  0  0  0  0  0  0
  -36.0840   57.1955   62.2818 C   0  0  0  0  0  0  0  0  0  0  0  0
  -34.5167   58.6663   64.1764 C   0  0  0  0  0  0  0  0  0  0  0  0
  -33.8929   58.1707   62.9076 C   0  0  0  0  0  0  0  0  0  0  0  0
  -32.4459   58.4509   62.6342 C   0  0  0  0  0  0  0  0  0  0  0  0
  -34.6241   57.4835   62.0174 C   0  0  0  0  0  0  0  0  0  0  0  0
  -40.1982   56.1763   62.5121 C   0  0  0  0  0  0  0  0  0  0  0  0
  -40.7183   56.6871   63.8504 C   0  0  0  0  0  0  0  0  0  0  0  0
  -42.2013   56.9733   63.7557 C   0  0  0  0  0  0  0  0  0  0  0  0
  -42.7699   57.5329   62.4889 C   0  0  0  0  0  0  0  0  0  0  0  0
  -43.0104   56.7194   64.7948 C   0  0  0  0  0  0  0  0  0  0  0  0
  -45.1954   56.2046   65.6849 O   0  0  0  0  0  0  0  0  0  0  0  0
  -44.4949   56.9943   64.7172 C   0  0  0  0  0  0  0  0  0  0  0  0
  -46.1459   56.3892   65.6259 H   0  0  0  0  0  0  0  0  0  0  0  0
  6  7  1  0  0  0
 15 16  1  0  0  0
 15 17  1  0  0  0
  7  8  1  0  0  0
  7  9  2  0  0  0
  9  5  1  0  0  0
  5  4  1  0  0  0
  4  1  1  0  0  0
  1  2  1  0  0  0
  1  3  2  0  0  0
  3 10  1  0  0  0
 10 11  1  0  0  0
 11 12  1  0  0  0
 12 13  1  0  0  0
 12 14  2  0  0  0
 14 16  1  0  0  0
M  END
> <minimizedAffinity>
-7.03180

> <CNNscore>
0.6239144802

> <CNNaffinity>
5.7074971199

> <CNN_VS>
3.5609900951

> <CNNaffinity_variance>
0.0220252667

$$$$
/media/chris/experiments/cd1a-new-docking/inputs/ligands/6nux_ligand.pdb


 17 16  0  0  0  0  0  0  0  0999 V2000
  -38.7136   57.8413   61.2133 C   0  0  0  0  0  0  0  0  0  0  0  0
  -37.9771   58.9248   60.4781 C   0  0  0  0  0  0  0  0  0  0  0  0
  -38.0391   57.0428   62.0525 C   0  0  0  0  0  0  0  0  0  0  0  0
  -40.2029   57.6490   61.0196 C   0  0  0  0  0  0  0  0  0  0  0  0
  -40.6949   56.4293   61.7921 C   0  0  0  0  0  0  0  0  0  0  0  0
  -41.6175   54.5132   63.7121 C   0  0  0  0  0  0  0  0  0  0  0  0
  -42.0169   55.9520   63.8337 C   0  0  0  0  0  0  0  0  0  0  0  0
  -42.9034   56.3825   64.9632 C   0  0  0  0  0  0  0  0  0  0  0  0
  -41.5884   56.8515   62.9355 C   0  0  0  0  0  0  0  0  0  0  0  0
  -36.5534   57.2335   62.2545 C   0  0  0  0  0  0  0  0  0  0  0  0
  -36.2092   57.1473   63.7365 C   0  0  0  0  0  0  0  0  0  0  0  0
  -37.0038   58.1737   64.5144 C   0  0  0  0  0  0  0  0  0  0  0  0
  -38.2295   57.7517   65.2633 C   0  0  0  0  0  0  0  0  0  0  0  0
  -36.6116   59.4560   64.5459 C   0  0  0  0  0  0  0  0  0  0  0  0
  -38.1383   61.3231   64.4248 O   0  0  0  0  0  0  0  0  0  0  0  0
  -37.3897   60.4945   65.3213 C   0  0  0  0  0  0  0  0  0  0  0  0
  -38.6329   61.9848   64.9330 H   0  0  0  0  0  0  0  0  0  0  0  0
  6  7  1  0  0  0
 15 16  1  0  0  0
 15 17  1  0  0  0
  7  8  1  0  0  0
  7  9  2  0  0  0
  9  5  1  0  0  0
  5  4  1  0  0  0
  4  1  1  0  0  0
  1  2  1  0  0  0
  1  3  2  0  0  0
  3 10  1  0  0  0
 10 11  1  0  0  0
 11 12  1  0  0  0
 12 13  1  0  0  0
 12 14  2  0  0  0
 14 16  1  0  0  0
M  END
> <minimizedAffinity>
-6.81607

> <CNNscore>
0.6135377884

> <CNNaffinity>
5.5644707680

> <CNN_VS>
3.4140131474

> <CNNaffinity_variance>
0.0291789714

$$$$
/media/chris/experiments/cd1a-new-docking/inputs/ligands/6nux_ligand.pdb


 17 16  0  0  0  0  0  0  0  0999 V2000
  -38.4104   57.5365   61.3905 C   0  0  0  0  0  0  0  0  0  0  0  0
  -39.4529   58.2400   60.5689 C   0  0  0  0  0  0  0  0  0  0  0  0
  -38.7911   56.6020   62.2727 C   0  0  0  0  0  0  0  0  0  0  0  0
  -36.9421   57.8685   61.2270 C   0  0  0  0  0  0  0  0  0  0  0  0
  -36.1235   57.2724   62.3675 C   0  0  0  0  0  0  0  0  0  0  0  0
  -34.5400   59.1241   63.8752 C   0  0  0  0  0  0  0  0  0  0  0  0
  -33.9062   58.2911   62.8033 C   0  0  0  0  0  0  0  0  0  0  0  0
  -32.4407   58.4340   62.5226 C   0  0  0  0  0  0  0  0  0  0  0  0
  -34.6449   57.4246   62.0940 C   0  0  0  0  0  0  0  0  0  0  0  0
  -40.2547   56.2620   62.4364 C   0  0  0  0  0  0  0  0  0  0  0  0
  -40.6740   56.4309   63.8917 C   0  0  0  0  0  0  0  0  0  0  0  0
  -40.8660   57.8979   64.2096 C   0  0  0  0  0  0  0  0  0  0  0  0
  -41.8462   58.7068   63.4184 C   0  0  0  0  0  0  0  0  0  0  0  0
  -40.1720   58.4751   65.2016 C   0  0  0  0  0  0  0  0  0  0  0  0
  -39.2076   60.4305   66.2400 O   0  0  0  0  0  0  0  0  0  0  0  0
  -40.3538   59.9380   65.5369 C   0  0  0  0  0  0  0  0  0  0  0  0
  -39.3355   61.3689   66.4495 H   0  0  0  0  0  0  0  0  0  0  0  0
  6  7  1  0  0  0
 15 16  1  0  0  0
 15 17  1  0  0  0
  7  8  1  0  0  0
  7  9  2  0  0  0
  9  5  1  0  0  0
  5  4  1  0  0  0
  4  1  1  0  0  0
  1  2  1  0  0  0
  1  3  2  0  0  0
  3 10  1  0  0  0
 10 11  1  0  0  0
 11 12  1  0  0  0
 12 13  1  0  0  0
 12 14  2  0  0  0
 14 16  1  0  0  0
M  END
> <minimizedAffinity>
-6.85626

> <CNNscore>
0.5924842358

> <CNNaffinity>
5.5673890114

> <CNN_VS>
3.2985901833

> <CNNaffinity_variance>
0.0150859673

$$$$
/media/chris/experiments/cd1a-new-docking/inputs/ligands/6nux_ligand.pdb


 17 16  0  0  0  0  0  0  0  0999 V2000
  -37.4175   57.8579   63.9677 C   0  0  0  0  0  0  0  0  0  0  0  0
  -38.5702   57.5895   64.8930 C   0  0  0  0  0  0  0  0  0  0  0  0
  -37.4807   57.4285   62.6995 C   0  0  0  0  0  0  0  0  0  0  0  0
  -36.1954   58.6098   64.4513 C   0  0  0  0  0  0  0  0  0  0  0  0
  -34.9711   57.7003   64.4622 C   0  0  0  0  0  0  0  0  0  0  0  0
  -33.8457   57.1647   61.8823 C   0  0  0  0  0  0  0  0  0  0  0  0
  -33.2269   58.1983   62.7730 C   0  0  0  0  0  0  0  0  0  0  0  0
  -32.0150   58.9481   62.3080 C   0  0  0  0  0  0  0  0  0  0  0  0
  -33.7499   58.4503   63.9822 C   0  0  0  0  0  0  0  0  0  0  0  0
  -38.7003   56.6825   62.2091 C   0  0  0  0  0  0  0  0  0  0  0  0
  -39.4784   57.5407   61.2190 C   0  0  0  0  0  0  0  0  0  0  0  0
  -40.5936   58.2741   61.9322 C   0  0  0  0  0  0  0  0  0  0  0  0
  -41.8415   57.5393   62.3116 C   0  0  0  0  0  0  0  0  0  0  0  0
  -40.4670   59.5744   62.2357 C   0  0  0  0  0  0  0  0  0  0  0  0
  -41.0678   60.8977   64.1642 O   0  0  0  0  0  0  0  0  0  0  0  0
  -41.5681   60.3225   62.9520 C   0  0  0  0  0  0  0  0  0  0  0  0
  -41.7824   61.3746   64.6147 H   0  0  0  0  0  0  0  0  0  0  0  0
  6  7  1  0  0  0
 15 16  1  0  0  0
 15 17  1  0  0  0
  7  8  1  0  0  0
  7  9  2  0  0  0
  9  5  1  0  0  0
  5  4  1  0  0  0
  4  1  1  0  0  0
  1  2  1  0  0  0
  1  3  2  0  0  0
  3 10  1  0  0  0
 10 11  1  0  0  0
 11 12  1  0  0  0
 12 13  1  0  0  0
 12 14  2  0  0  0
 14 16  1  0  0  0
M  END
> <minimizedAffinity>
-6.42448

> <CNNscore>
0.5777503848

> <CNNaffinity>
5.5822958946

> <CNN_VS>
3.2251737118

> <CNNaffinity_variance>
0.1334193051

$$$$
/media/chris/experiments/cd1a-new-docking/inputs/ligands/6nux_ligand.pdb


 17 16  0  0  0  0  0  0  0  0999 V2000
  -35.4017   58.1717   63.5076 C   0  0  0  0  0  0  0  0  0  0  0  0
  -35.3401   57.6060   64.8980 C   0  0  0  0  0  0  0  0  0  0  0  0
  -35.2359   59.4896   63.3277 C   0  0  0  0  0  0  0  0  0  0  0  0
  -35.6425   57.2702   62.3151 C   0  0  0  0  0  0  0  0  0  0  0  0
  -36.8790   57.7164   61.5417 C   0  0  0  0  0  0  0  0  0  0  0  0
  -39.4629   58.2888   60.4439 C   0  0  0  0  0  0  0  0  0  0  0  0
  -39.3196   57.2839   61.5458 C   0  0  0  0  0  0  0  0  0  0  0  0
  -40.5354   56.5822   62.0718 C   0  0  0  0  0  0  0  0  0  0  0  0
  -38.1118   57.0148   62.0635 C   0  0  0  0  0  0  0  0  0  0  0  0
  -34.9895   60.3938   64.5134 C   0  0  0  0  0  0  0  0  0  0  0  0
  -34.4641   61.7450   64.0438 C   0  0  0  0  0  0  0  0  0  0  0  0
  -34.4147   62.7146   65.2046 C   0  0  0  0  0  0  0  0  0  0  0  0
  -33.2862   63.6930   65.3071 C   0  0  0  0  0  0  0  0  0  0  0  0
  -35.3800   62.7102   66.1358 C   0  0  0  0  0  0  0  0  0  0  0  0
  -36.6306   63.7172   67.9395 O   0  0  0  0  0  0  0  0  0  0  0  0
  -35.3502   63.6742   67.2998 C   0  0  0  0  0  0  0  0  0  0  0  0
  -36.5994   64.3383   68.6839 H   0  0  0  0  0  0  0  0  0  0  0  0
  6  7  1  0  0  0
 15 16  1  0  0  0
 15 17  1  0  0  0
  7  8  1  0  0  0
  7  9  2  0  0  0
  9  5  1  0  0  0
  5  4  1  0  0  0
  4  1  1  0  0  0
  1  2  1  0  0  0
  1  3  2  0  0  0
  3 10  1  0  0  0
 10 11  1  0  0  0
 11 12  1  0  0  0
 12 13  1  0  0  0
 12 14  2  0  0  0
 14 16  1  0  0  0
M  END
> <minimizedAffinity>
-6.83102

> <CNNscore>
0.5650125742

> <CNNaffinity>
5.2559895515

> <CNN_VS>
2.9697000980

> <CNNaffinity_variance>
0.0658741891

$$$$
/media/chris/experiments/cd1a-new-docking/inputs/ligands/6nux_ligand.pdb


 17 16  0  0  0  0  0  0  0  0999 V2000
  -38.6957   57.5116   61.4001 C   0  0  0  0  0  0  0  0  0  0  0  0
  -38.5973   58.5618   60.3303 C   0  0  0  0  0  0  0  0  0  0  0  0
  -37.5776   57.0798   62.0001 C   0  0  0  0  0  0  0  0  0  0  0  0
  -40.0395   56.9450   61.8074 C   0  0  0  0  0  0  0  0  0  0  0  0
  -40.0484   56.5889   63.2904 C   0  0  0  0  0  0  0  0  0  0  0  0
  -38.5796   58.0835   65.2444 C   0  0  0  0  0  0  0  0  0  0  0  0
  -40.0290   58.3782   65.0055 C   0  0  0  0  0  0  0  0  0  0  0  0
  -40.7063   59.4569   65.7960 C   0  0  0  0  0  0  0  0  0  0  0  0
  -40.7203   57.6792   64.0929 C   0  0  0  0  0  0  0  0  0  0  0  0
  -36.2338   57.6457   61.6020 C   0  0  0  0  0  0  0  0  0  0  0  0
  -35.3664   57.8581   62.8368 C   0  0  0  0  0  0  0  0  0  0  0  0
  -33.9039   57.8689   62.4480 C   0  0  0  0  0  0  0  0  0  0  0  0
  -33.3194   56.6956   61.7247 C   0  0  0  0  0  0  0  0  0  0  0  0
  -33.1311   58.9262   62.7377 C   0  0  0  0  0  0  0  0  0  0  0  0
  -31.4361   59.9790   61.3776 O   0  0  0  0  0  0  0  0  0  0  0  0
  -31.6695   58.9571   62.3532 C   0  0  0  0  0  0  0  0  0  0  0  0
  -30.4960   59.9894   61.1388 H   0  0  0  0  0  0  0  0  0  0  0  0
  6  7  1  0  0  0
 15 16  1  0  0  0
 15 17  1  0  0  0
  7  8  1  0  0  0
  7  9  2  0  0  0
  9  5  1  0  0  0
  5  4  1  0  0  0
  4  1  1  0  0  0
  1  2  1  0  0  0
  1  3  2  0  0  0
  3 10  1  0  0  0
 10 11  1  0  0  0
 11 12  1  0  0  0
 12 13  1  0  0  0
 12 14  2  0  0  0
 14 16  1  0  0  0
M  END
> <minimizedAffinity>
-6.91892

> <CNNscore>
0.5618513227

> <CNNaffinity>
5.6651334763

> <CNN_VS>
3.1829626560

> <CNNaffinity_variance>
0.0671047196

$$$$
/media/chris/experiments/cd1a-new-docking/inputs/ligands/6nux_ligand.pdb


 17 16  0  0  0  0  0  0  0  0999 V2000
  -33.1003   58.8405   62.3821 C   0  0  0  0  0  0  0  0  0  0  0  0
  -33.8045   59.6646   63.4223 C   0  0  0  0  0  0  0  0  0  0  0  0
  -31.8717   59.1983   61.9831 C   0  0  0  0  0  0  0  0  0  0  0  0
  -33.7607   57.6139   61.7889 C   0  0  0  0  0  0  0  0  0  0  0  0
  -34.8593   57.0933   62.7100 C   0  0  0  0  0  0  0  0  0  0  0  0
  -37.2830   57.3717   64.2125 C   0  0  0  0  0  0  0  0  0  0  0  0
  -37.3318   57.2672   62.7187 C   0  0  0  0  0  0  0  0  0  0  0  0
  -38.6552   57.3064   62.0157 C   0  0  0  0  0  0  0  0  0  0  0  0
  -36.1993   57.1347   62.0122 C   0  0  0  0  0  0  0  0  0  0  0  0
  -31.2049   60.4183   62.5757 C   0  0  0  0  0  0  0  0  0  0  0  0
  -31.4380   61.6308   61.6824 C   0  0  0  0  0  0  0  0  0  0  0  0
  -32.0653   62.7518   62.4823 C   0  0  0  0  0  0  0  0  0  0  0  0
  -33.4224   63.2614   62.1083 C   0  0  0  0  0  0  0  0  0  0  0  0
  -31.4184   63.2842   63.5297 C   0  0  0  0  0  0  0  0  0  0  0  0
  -32.2305   63.9760   65.6962 O   0  0  0  0  0  0  0  0  0  0  0  0
  -32.0310   64.4013   64.3435 C   0  0  0  0  0  0  0  0  0  0  0  0
  -32.6235   64.7001   66.2081 H   0  0  0  0  0  0  0  0  0  0  0  0
  6  7  1  0  0  0
 15 16  1  0  0  0
 15 17  1  0  0  0
  7  8  1  0  0  0
  7  9  2  0  0  0
  9  5  1  0  0  0
  5  4  1  0  0  0
  4  1  1  0  0  0
  1  2  1  0  0  0
  1  3  2  0  0  0
  3 10  1  0  0  0
 10 11  1  0  0  0
 11 12  1  0  0  0
 12 13  1  0  0  0
 12 14  2  0  0  0
 14 16  1  0  0  0
M  END
> <minimizedAffinity>
-6.41293

> <CNNscore>
0.5456848741

> <CNNaffinity>
5.3282732964

> <CNN_VS>
2.9075582027

> <CNNaffinity_variance>
0.0130258482

$$$$
/media/chris/experiments/cd1a-new-docking/inputs/ligands/6nux_ligand.pdb


 17 16  0  0  0  0  0  0  0  0999 V2000
  -34.7992   58.2196   63.2225 C   0  0  0  0  0  0  0  0  0  0  0  0
  -33.4241   58.6940   62.8469 C   0  0  0  0  0  0  0  0  0  0  0  0
  -35.4134   58.7626   64.2829 C   0  0  0  0  0  0  0  0  0  0  0  0
  -35.4945   57.1442   62.4146 C   0  0  0  0  0  0  0  0  0  0  0  0
  -36.7333   57.7042   61.7232 C   0  0  0  0  0  0  0  0  0  0  0  0
  -39.2792   58.2248   60.5164 C   0  0  0  0  0  0  0  0  0  0  0  0
  -39.1667   57.2402   61.6399 C   0  0  0  0  0  0  0  0  0  0  0  0
  -40.3933   56.5316   62.1304 C   0  0  0  0  0  0  0  0  0  0  0  0
  -37.9767   56.9954   62.2087 C   0  0  0  0  0  0  0  0  0  0  0  0
  -34.7270   59.8406   65.0898 C   0  0  0  0  0  0  0  0  0  0  0  0
  -35.5904   61.0956   65.1323 C   0  0  0  0  0  0  0  0  0  0  0  0
  -35.3848   61.9099   63.8734 C   0  0  0  0  0  0  0  0  0  0  0  0
  -36.5544   62.2241   62.9933 C   0  0  0  0  0  0  0  0  0  0  0  0
  -34.1644   62.3604   63.5468 C   0  0  0  0  0  0  0  0  0  0  0  0
  -33.5343   64.5084   62.6410 O   0  0  0  0  0  0  0  0  0  0  0  0
  -33.9404   63.1792   62.2960 C   0  0  0  0  0  0  0  0  0  0  0  0
  -33.3937   65.0238   61.8314 H   0  0  0  0  0  0  0  0  0  0  0  0
  6  7  1  0  0  0
 15 16  1  0  0  0
 15 17  1  0  0  0
  7  8  1  0  0  0
  7  9  2  0  0  0
  9  5  1  0  0  0
  5  4  1  0  0  0
  4  1  1  0  0  0
  1  2  1  0  0  0
  1  3  2  0  0  0
  3 10  1  0  0  0
 10 11  1  0  0  0
 11 12  1  0  0  0
 12 13  1  0  0  0
 12 14  2  0  0  0
 14 16  1  0  0  0
M  END
> <minimizedAffinity>
-6.77882

> <CNNscore>
0.5299641490

> <CNNaffinity>
5.2258720398

> <CNN_VS>
2.7695248127

> <CNNaffinity_variance>
0.0790064484

$$$$
/media/chris/experiments/cd1a-new-docking/inputs/ligands/6nux_ligand.pdb


 17 16  0  0  0  0  0  0  0  0999 V2000
  -49.5406   58.8763   64.6505 C   0  0  0  0  0  0  0  0  0  0  0  0
  -49.4323   60.3742   64.6911 C   0  0  0  0  0  0  0  0  0  0  0  0
  -49.1336   58.2188   63.5557 C   0  0  0  0  0  0  0  0  0  0  0  0
  -50.0969   58.1082   65.8309 C   0  0  0  0  0  0  0  0  0  0  0  0
  -49.0052   57.2775   66.4975 C   0  0  0  0  0  0  0  0  0  0  0  0
  -46.2918   56.9102   65.6536 C   0  0  0  0  0  0  0  0  0  0  0  0
  -46.6369   57.9980   66.6243 C   0  0  0  0  0  0  0  0  0  0  0  0
  -45.5549   58.8905   67.1531 C   0  0  0  0  0  0  0  0  0  0  0  0
  -47.9059   58.1715   67.0231 C   0  0  0  0  0  0  0  0  0  0  0  0
  -48.5721   58.9794   62.3766 C   0  0  0  0  0  0  0  0  0  0  0  0
  -49.6635   59.2255   61.3419 C   0  0  0  0  0  0  0  0  0  0  0  0
  -49.6138   58.1573   60.2710 C   0  0  0  0  0  0  0  0  0  0  0  0
  -50.8808   57.7052   59.6142 C   0  0  0  0  0  0  0  0  0  0  0  0
  -48.4419   57.6210   59.8995 C   0  0  0  0  0  0  0  0  0  0  0  0
  -48.2409   55.2616   59.4259 O   0  0  0  0  0  0  0  0  0  0  0  0
  -48.3720   56.5564   58.8285 C   0  0  0  0  0  0  0  0  0  0  0  0
  -48.1971   54.5874   58.7299 H   0  0  0  0  0  0  0  0  0  0  0  0
  6  7  1  0  0  0
 15 16  1  0  0  0
 15 17  1  0  0  0
  7  8  1  0  0  0
  7  9  2  0  0  0
  9  5  1  0  0  0
  5  4  1  0  0  0
  4  1  1  0  0  0
  1  2  1  0  0  0
  1  3  2  0  0  0
  3 10  1  0  0  0
 10 11  1  0  0  0
 11 12  1  0  0  0
 12 13  1  0  0  0
 12 14  2  0  0  0
 14 16  1  0  0  0
M  END
> <minimizedAffinity>
-6.56669

> <CNNscore>
0.5291424990

> <CNNaffinity>
5.9924478531

> <CNN_VS>
3.1708588600

> <CNNaffinity_variance>
0.1538672000

$$$$
