/media/chris/experiments/cd1a-new-docking/inputs/ligands/6nux_ligand.pdb


 17 16  0  0  0  0  0  0  0  0999 V2000
  -38.3955   57.5331   61.4308 C   0  0  0  0  0  0  0  0  0  0  0  0
  -39.4798   58.1680   60.6074 C   0  0  0  0  0  0  0  0  0  0  0  0
  -38.7231   56.6160   62.3517 C   0  0  0  0  0  0  0  0  0  0  0  0
  -36.9444   57.9142   61.2260 C   0  0  0  0  0  0  0  0  0  0  0  0
  -36.0537   57.2184   62.2502 C   0  0  0  0  0  0  0  0  0  0  0  0
  -34.5339   58.8152   64.0803 C   0  0  0  0  0  0  0  0  0  0  0  0
  -33.8894   58.2716   62.8419 C   0  0  0  0  0  0  0  0  0  0  0  0
  -32.4466   58.5700   62.5648 C   0  0  0  0  0  0  0  0  0  0  0  0
  -34.5984   57.5254   61.9819 C   0  0  0  0  0  0  0  0  0  0  0  0
  -40.1692   56.2271   62.5568 C   0  0  0  0  0  0  0  0  0  0  0  0
  -40.6616   56.7284   63.9089 C   0  0  0  0  0  0  0  0  0  0  0  0
  -42.1688   56.8637   63.8948 C   0  0  0  0  0  0  0  0  0  0  0  0
  -42.8566   57.3755   62.6673 C   0  0  0  0  0  0  0  0  0  0  0  0
  -42.8927   56.5185   64.9697 C   0  0  0  0  0  0  0  0  0  0  0  0
  -44.9091   56.4472   66.2965 O   0  0  0  0  0  0  0  0  0  0  0  0
  -44.3993   56.6421   64.9726 C   0  0  0  0  0  0  0  0  0  0  0  0
  -45.8756   56.5287   66.2859 H   0  0  0  0  0  0  0  0  0  0  0  0
  6  7  1  0  0  0
 15 16  1  0  0  0
 15 17  1  0  0  0
  7  8  1  0  0  0
  7  9  2  0  0  0
  9  5  1  0  0  0
  5  4  1  0  0  0
  4  1  1  0  0  0
  1  2  1  0  0  0
  1  3  2  0  0  0
  3 10  1  0  0  0
 10 11  1  0  0  0
 11 12  1  0  0  0
 12 13  1  0  0  0
 12 14  2  0  0  0
 14 16  1  0  0  0
M  END
> <minimizedAffinity>
-7.00283

> <CNNscore>
0.6944622397

> <CNNaffinity>
5.7467107773

> <CNN_VS>
3.9908735752

> <CNNaffinity_variance>
0.0296925716

$$$$
/media/chris/experiments/cd1a-new-docking/inputs/ligands/6nux_ligand.pdb


 17 16  0  0  0  0  0  0  0  0999 V2000
  -41.8828   55.9396   63.0265 C   0  0  0  0  0  0  0  0  0  0  0  0
  -41.6560   54.5608   63.5783 C   0  0  0  0  0  0  0  0  0  0  0  0
  -42.5186   56.8500   63.7771 C   0  0  0  0  0  0  0  0  0  0  0  0
  -41.3971   56.3082   61.6406 C   0  0  0  0  0  0  0  0  0  0  0  0
  -40.4669   57.5156   61.6978 C   0  0  0  0  0  0  0  0  0  0  0  0
  -38.0988   58.5714   60.4786 C   0  0  0  0  0  0  0  0  0  0  0  0
  -37.9912   57.6044   61.6178 C   0  0  0  0  0  0  0  0  0  0  0  0
  -36.6383   57.1908   62.1139 C   0  0  0  0  0  0  0  0  0  0  0  0
  -39.0976   57.1066   62.1897 C   0  0  0  0  0  0  0  0  0  0  0  0
  -43.0007   56.4899   65.1636 C   0  0  0  0  0  0  0  0  0  0  0  0
  -44.5198   56.3706   65.1773 C   0  0  0  0  0  0  0  0  0  0  0  0
  -45.1016   57.2719   66.2447 C   0  0  0  0  0  0  0  0  0  0  0  0
  -44.4384   58.5777   66.5558 C   0  0  0  0  0  0  0  0  0  0  0  0
  -46.2122   56.9140   66.9058 C   0  0  0  0  0  0  0  0  0  0  0  0
  -47.8185   58.6470   67.4037 O   0  0  0  0  0  0  0  0  0  0  0  0
  -46.8106   57.8033   67.9718 C   0  0  0  0  0  0  0  0  0  0  0  0
  -48.1947   59.2124   68.0962 H   0  0  0  0  0  0  0  0  0  0  0  0
  6  7  1  0  0  0
 15 16  1  0  0  0
 15 17  1  0  0  0
  7  8  1  0  0  0
  7  9  2  0  0  0
  9  5  1  0  0  0
  5  4  1  0  0  0
  4  1  1  0  0  0
  1  2  1  0  0  0
  1  3  2  0  0  0
  3 10  1  0  0  0
 10 11  1  0  0  0
 11 12  1  0  0  0
 12 13  1  0  0  0
 12 14  2  0  0  0
 14 16  1  0  0  0
M  END
> <minimizedAffinity>
-6.76581

> <CNNscore>
0.6934001446

> <CNNaffinity>
5.7387790680

> <CNN_VS>
3.9792702198

> <CNNaffinity_variance>
0.2198072225

$$$$
/media/chris/experiments/cd1a-new-docking/inputs/ligands/6nux_ligand.pdb


 17 16  0  0  0  0  0  0  0  0999 V2000
  -50.0458   58.7318   61.1242 C   0  0  0  0  0  0  0  0  0  0  0  0
  -49.8182   60.2094   60.9769 C   0  0  0  0  0  0  0  0  0  0  0  0
  -49.7356   58.1326   62.2823 C   0  0  0  0  0  0  0  0  0  0  0  0
  -50.6245   57.9203   59.9843 C   0  0  0  0  0  0  0  0  0  0  0  0
  -49.6324   56.8596   59.5185 C   0  0  0  0  0  0  0  0  0  0  0  0
  -47.2392   55.3497   59.0687 C   0  0  0  0  0  0  0  0  0  0  0  0
  -47.2981   56.7973   58.6875 C   0  0  0  0  0  0  0  0  0  0  0  0
  -46.0976   57.4514   58.0723 C   0  0  0  0  0  0  0  0  0  0  0  0
  -48.4160   57.5078   58.8985 C   0  0  0  0  0  0  0  0  0  0  0  0
  -49.1631   58.9382   63.4259 C   0  0  0  0  0  0  0  0  0  0  0  0
  -49.6911   58.4125   64.7551 C   0  0  0  0  0  0  0  0  0  0  0  0
  -48.6048   57.6463   65.4785 C   0  0  0  0  0  0  0  0  0  0  0  0
  -47.2359   57.5552   64.8792 C   0  0  0  0  0  0  0  0  0  0  0  0
  -48.8573   57.0577   66.6569 C   0  0  0  0  0  0  0  0  0  0  0  0
  -47.8391   54.9037   67.0503 O   0  0  0  0  0  0  0  0  0  0  0  0
  -47.7839   56.2921   67.3964 C   0  0  0  0  0  0  0  0  0  0  0  0
  -47.1466   54.4231   67.5303 H   0  0  0  0  0  0  0  0  0  0  0  0
  6  7  1  0  0  0
 15 16  1  0  0  0
 15 17  1  0  0  0
  7  8  1  0  0  0
  7  9  2  0  0  0
  9  5  1  0  0  0
  5  4  1  0  0  0
  4  1  1  0  0  0
  1  2  1  0  0  0
  1  3  2  0  0  0
  3 10  1  0  0  0
 10 11  1  0  0  0
 11 12  1  0  0  0
 12 13  1  0  0  0
 12 14  2  0  0  0
 14 16  1  0  0  0
M  END
> <minimizedAffinity>
-7.49345

> <CNNscore>
0.6734734774

> <CNNaffinity>
5.9644174576

> <CNN_VS>
4.0168771744

> <CNNaffinity_variance>
0.1685323417

$$$$
/media/chris/experiments/cd1a-new-docking/inputs/ligands/6nux_ligand.pdb


 17 16  0  0  0  0  0  0  0  0999 V2000
  -49.4351   59.3938   62.2314 C   0  0  0  0  0  0  0  0  0  0  0  0
  -48.7503   60.7054   61.9713 C   0  0  0  0  0  0  0  0  0  0  0  0
  -49.6938   59.0282   63.4948 C   0  0  0  0  0  0  0  0  0  0  0  0
  -49.8378   58.4900   61.0852 C   0  0  0  0  0  0  0  0  0  0  0  0
  -48.8447   57.3432   60.9273 C   0  0  0  0  0  0  0  0  0  0  0  0
  -46.0834   58.0509   60.6385 C   0  0  0  0  0  0  0  0  0  0  0  0
  -46.9045   57.7166   59.4308 C   0  0  0  0  0  0  0  0  0  0  0  0
  -46.2740   57.7571   58.0712 C   0  0  0  0  0  0  0  0  0  0  0  0
  -48.1980   57.3868   59.5620 C   0  0  0  0  0  0  0  0  0  0  0  0
  -49.2995   59.9287   64.6429 C   0  0  0  0  0  0  0  0  0  0  0  0
  -49.6268   59.2593   65.9721 C   0  0  0  0  0  0  0  0  0  0  0  0
  -48.4748   58.3800   66.4080 C   0  0  0  0  0  0  0  0  0  0  0  0
  -47.1352   58.9917   66.6782 C   0  0  0  0  0  0  0  0  0  0  0  0
  -48.6485   57.0593   66.5639 C   0  0  0  0  0  0  0  0  0  0  0  0
  -47.5132   54.9523   66.2428 O   0  0  0  0  0  0  0  0  0  0  0  0
  -47.5109   56.1658   67.0030 C   0  0  0  0  0  0  0  0  0  0  0  0
  -46.7798   54.3877   66.5331 H   0  0  0  0  0  0  0  0  0  0  0  0
  6  7  1  0  0  0
 15 16  1  0  0  0
 15 17  1  0  0  0
  7  8  1  0  0  0
  7  9  2  0  0  0
  9  5  1  0  0  0
  5  4  1  0  0  0
  4  1  1  0  0  0
  1  2  1  0  0  0
  1  3  2  0  0  0
  3 10  1  0  0  0
 10 11  1  0  0  0
 11 12  1  0  0  0
 12 13  1  0  0  0
 12 14  2  0  0  0
 14 16  1  0  0  0
M  END
> <minimizedAffinity>
-6.95853

> <CNNscore>
0.6524376869

> <CNNaffinity>
5.9830918312

> <CNN_VS>
3.9035944939

> <CNNaffinity_variance>
0.3110200167

$$$$
/media/chris/experiments/cd1a-new-docking/inputs/ligands/6nux_ligand.pdb


 17 16  0  0  0  0  0  0  0  0999 V2000
  -43.9557   57.2351   63.8749 C   0  0  0  0  0  0  0  0  0  0  0  0
  -43.5935   56.2908   64.9857 C   0  0  0  0  0  0  0  0  0  0  0  0
  -43.0524   57.5037   62.9217 C   0  0  0  0  0  0  0  0  0  0  0  0
  -45.3259   57.8771   63.8206 C   0  0  0  0  0  0  0  0  0  0  0  0
  -45.9643   57.9052   65.2055 C   0  0  0  0  0  0  0  0  0  0  0  0
  -47.8453   59.7870   66.2685 C   0  0  0  0  0  0  0  0  0  0  0  0
  -48.3284   58.5333   65.6058 C   0  0  0  0  0  0  0  0  0  0  0  0
  -49.8004   58.2681   65.5047 C   0  0  0  0  0  0  0  0  0  0  0  0
  -47.4507   57.6491   65.1088 C   0  0  0  0  0  0  0  0  0  0  0  0
  -41.6850   56.8615   62.9672 C   0  0  0  0  0  0  0  0  0  0  0  0
  -41.1383   56.6886   61.5553 C   0  0  0  0  0  0  0  0  0  0  0  0
  -39.7294   57.2350   61.4738 C   0  0  0  0  0  0  0  0  0  0  0  0
  -38.6880   56.7485   62.4332 C   0  0  0  0  0  0  0  0  0  0  0  0
  -39.4052   58.1434   60.5419 C   0  0  0  0  0  0  0  0  0  0  0  0
  -37.9815   60.0692   60.8516 O   0  0  0  0  0  0  0  0  0  0  0  0
  -38.0022   58.6972   60.4421 C   0  0  0  0  0  0  0  0  0  0  0  0
  -37.0772   60.4133   60.7833 H   0  0  0  0  0  0  0  0  0  0  0  0
  6  7  1  0  0  0
 15 16  1  0  0  0
 15 17  1  0  0  0
  7  8  1  0  0  0
  7  9  2  0  0  0
  9  5  1  0  0  0
  5  4  1  0  0  0
  4  1  1  0  0  0
  1  2  1  0  0  0
  1  3  2  0  0  0
  3 10  1  0  0  0
 10 11  1  0  0  0
 11 12  1  0  0  0
 12 13  1  0  0  0
 12 14  2  0  0  0
 14 16  1  0  0  0
M  END
> <minimizedAffinity>
-6.73417

> <CNNscore>
0.6082280874

> <CNNaffinity>
5.8458480835

> <CNN_VS>
3.5556089878

> <CNNaffinity_variance>
0.6788641810

$$$$
/media/chris/experiments/cd1a-new-docking/inputs/ligands/6nux_ligand.pdb


 17 16  0  0  0  0  0  0  0  0999 V2000
  -38.3468   57.5435   61.4029 C   0  0  0  0  0  0  0  0  0  0  0  0
  -39.3852   58.2444   60.5738 C   0  0  0  0  0  0  0  0  0  0  0  0
  -38.7331   56.6205   62.2949 C   0  0  0  0  0  0  0  0  0  0  0  0
  -36.8766   57.8650   61.2360 C   0  0  0  0  0  0  0  0  0  0  0  0
  -36.0609   57.2716   62.3801 C   0  0  0  0  0  0  0  0  0  0  0  0
  -33.3915   56.4498   61.7413 C   0  0  0  0  0  0  0  0  0  0  0  0
  -33.6334   57.7719   62.4032 C   0  0  0  0  0  0  0  0  0  0  0  0
  -32.4714   58.6603   62.7315 C   0  0  0  0  0  0  0  0  0  0  0  0
  -34.8816   58.1590   62.7056 C   0  0  0  0  0  0  0  0  0  0  0  0
  -40.1987   56.2910   62.4619 C   0  0  0  0  0  0  0  0  0  0  0  0
  -40.6192   56.4864   63.9135 C   0  0  0  0  0  0  0  0  0  0  0  0
  -40.7729   57.9614   64.2151 C   0  0  0  0  0  0  0  0  0  0  0  0
  -41.7800   58.7724   63.4604 C   0  0  0  0  0  0  0  0  0  0  0  0
  -40.0210   58.5441   65.1606 C   0  0  0  0  0  0  0  0  0  0  0  0
  -39.1195   60.4326   66.3657 O   0  0  0  0  0  0  0  0  0  0  0  0
  -40.1636   60.0150   65.4792 C   0  0  0  0  0  0  0  0  0  0  0  0
  -39.2213   61.3769   66.5627 H   0  0  0  0  0  0  0  0  0  0  0  0
  6  7  1  0  0  0
 15 16  1  0  0  0
 15 17  1  0  0  0
  7  8  1  0  0  0
  7  9  2  0  0  0
  9  5  1  0  0  0
  5  4  1  0  0  0
  4  1  1  0  0  0
  1  2  1  0  0  0
  1  3  2  0  0  0
  3 10  1  0  0  0
 10 11  1  0  0  0
 11 12  1  0  0  0
 12 13  1  0  0  0
 12 14  2  0  0  0
 14 16  1  0  0  0
M  END
> <minimizedAffinity>
-6.88471

> <CNNscore>
0.6030357480

> <CNNaffinity>
5.5687718391

> <CNN_VS>
3.3581686020

> <CNNaffinity_variance>
0.0273767915

$$$$
/media/chris/experiments/cd1a-new-docking/inputs/ligands/6nux_ligand.pdb


 17 16  0  0  0  0  0  0  0  0999 V2000
  -36.0415   58.0738   62.2507 C   0  0  0  0  0  0  0  0  0  0  0  0
  -34.6376   57.5812   62.0426 C   0  0  0  0  0  0  0  0  0  0  0  0
  -36.2690   59.0495   63.1412 C   0  0  0  0  0  0  0  0  0  0  0  0
  -37.1932   57.4848   61.4638 C   0  0  0  0  0  0  0  0  0  0  0  0
  -38.4279   58.3745   61.5657 C   0  0  0  0  0  0  0  0  0  0  0  0
  -40.0835   57.0063   63.4620 C   0  0  0  0  0  0  0  0  0  0  0  0
  -40.4339   56.9867   62.0055 C   0  0  0  0  0  0  0  0  0  0  0  0
  -41.6533   56.2455   61.5462 C   0  0  0  0  0  0  0  0  0  0  0  0
  -39.6600   57.6245   61.1147 C   0  0  0  0  0  0  0  0  0  0  0  0
  -35.1228   59.6455   63.9256 C   0  0  0  0  0  0  0  0  0  0  0  0
  -35.5921   60.0477   65.3185 C   0  0  0  0  0  0  0  0  0  0  0  0
  -35.4971   61.5489   65.4849 C   0  0  0  0  0  0  0  0  0  0  0  0
  -34.6966   62.3546   64.5093 C   0  0  0  0  0  0  0  0  0  0  0  0
  -36.1333   62.1629   66.4933 C   0  0  0  0  0  0  0  0  0  0  0  0
  -36.6882   64.0476   67.8974 O   0  0  0  0  0  0  0  0  0  0  0  0
  -36.0540   63.6618   66.6728 C   0  0  0  0  0  0  0  0  0  0  0  0
  -36.6312   65.0103   68.0016 H   0  0  0  0  0  0  0  0  0  0  0  0
  6  7  1  0  0  0
 15 16  1  0  0  0
 15 17  1  0  0  0
  7  8  1  0  0  0
  7  9  2  0  0  0
  9  5  1  0  0  0
  5  4  1  0  0  0
  4  1  1  0  0  0
  1  2  1  0  0  0
  1  3  2  0  0  0
  3 10  1  0  0  0
 10 11  1  0  0  0
 11 12  1  0  0  0
 12 13  1  0  0  0
 12 14  2  0  0  0
 14 16  1  0  0  0
M  END
> <minimizedAffinity>
-6.54401

> <CNNscore>
0.5999400616

> <CNNaffinity>
5.4503316879

> <CNN_VS>
3.2698724270

> <CNNaffinity_variance>
0.1368774474

$$$$
/media/chris/experiments/cd1a-new-docking/inputs/ligands/6nux_ligand.pdb


 17 16  0  0  0  0  0  0  0  0999 V2000
  -38.6497   57.9006   61.2233 C   0  0  0  0  0  0  0  0  0  0  0  0
  -37.9969   59.1256   60.6487 C   0  0  0  0  0  0  0  0  0  0  0  0
  -37.9245   57.0644   61.9794 C   0  0  0  0  0  0  0  0  0  0  0  0
  -40.1120   57.6078   60.9615 C   0  0  0  0  0  0  0  0  0  0  0  0
  -40.6426   56.5782   61.9538 C   0  0  0  0  0  0  0  0  0  0  0  0
  -41.7772   55.0497   64.0953 C   0  0  0  0  0  0  0  0  0  0  0  0
  -41.8739   56.5447   64.1048 C   0  0  0  0  0  0  0  0  0  0  0  0
  -42.5695   57.2355   65.2389 C   0  0  0  0  0  0  0  0  0  0  0  0
  -41.3457   57.2634   63.1029 C   0  0  0  0  0  0  0  0  0  0  0  0
  -36.4659   57.3543   62.2491 C   0  0  0  0  0  0  0  0  0  0  0  0
  -36.1833   57.2807   63.7447 C   0  0  0  0  0  0  0  0  0  0  0  0
  -37.1084   58.2147   64.4943 C   0  0  0  0  0  0  0  0  0  0  0  0
  -38.2477   57.6528   65.2868 C   0  0  0  0  0  0  0  0  0  0  0  0
  -36.9084   59.5405   64.4621 C   0  0  0  0  0  0  0  0  0  0  0  0
  -37.4479   61.8453   64.9395 O   0  0  0  0  0  0  0  0  0  0  0  0
  -37.8191   60.4887   65.2083 C   0  0  0  0  0  0  0  0  0  0  0  0
  -38.0385   62.4439   65.4231 H   0  0  0  0  0  0  0  0  0  0  0  0
  6  7  1  0  0  0
 15 16  1  0  0  0
 15 17  1  0  0  0
  7  8  1  0  0  0
  7  9  2  0  0  0
  9  5  1  0  0  0
  5  4  1  0  0  0
  4  1  1  0  0  0
  1  2  1  0  0  0
  1  3  2  0  0  0
  3 10  1  0  0  0
 10 11  1  0  0  0
 11 12  1  0  0  0
 12 13  1  0  0  0
 12 14  2  0  0  0
 14 16  1  0  0  0
M  END
> <minimizedAffinity>
-6.62687

> <CNNscore>
0.5873108506

> <CNNaffinity>
5.5818190575

> <CNN_VS>
3.2782628536

> <CNNaffinity_variance>
0.0219112858

$$$$
/media/chris/experiments/cd1a-new-docking/inputs/ligands/6nux_ligand.pdb


 17 16  0  0  0  0  0  0  0  0999 V2000
  -38.5467   57.4839   61.4502 C   0  0  0  0  0  0  0  0  0  0  0  0
  -39.5513   58.1473   60.5516 C   0  0  0  0  0  0  0  0  0  0  0  0
  -38.9685   56.6023   62.3675 C   0  0  0  0  0  0  0  0  0  0  0  0
  -37.0705   57.7968   61.3249 C   0  0  0  0  0  0  0  0  0  0  0  0
  -36.3413   57.4917   62.6293 C   0  0  0  0  0  0  0  0  0  0  0  0
  -34.1974   59.2139   63.4336 C   0  0  0  0  0  0  0  0  0  0  0  0
  -33.9025   57.9212   62.7362 C   0  0  0  0  0  0  0  0  0  0  0  0
  -32.4804   57.5356   62.4596 C   0  0  0  0  0  0  0  0  0  0  0  0
  -34.9037   57.1134   62.3565 C   0  0  0  0  0  0  0  0  0  0  0  0
  -40.4401   56.2814   62.4936 C   0  0  0  0  0  0  0  0  0  0  0  0
  -40.9074   56.5113   63.9256 C   0  0  0  0  0  0  0  0  0  0  0  0
  -41.3716   57.9415   64.0968 C   0  0  0  0  0  0  0  0  0  0  0  0
  -41.0236   58.6904   65.3457 C   0  0  0  0  0  0  0  0  0  0  0  0
  -42.0829   58.5455   63.1335 C   0  0  0  0  0  0  0  0  0  0  0  0
  -41.8878   60.8158   62.3340 O   0  0  0  0  0  0  0  0  0  0  0  0
  -42.5512   59.9749   63.2845 C   0  0  0  0  0  0  0  0  0  0  0  0
  -42.1959   61.7294   62.4403 H   0  0  0  0  0  0  0  0  0  0  0  0
  6  7  1  0  0  0
 15 16  1  0  0  0
 15 17  1  0  0  0
  7  8  1  0  0  0
  7  9  2  0  0  0
  9  5  1  0  0  0
  5  4  1  0  0  0
  4  1  1  0  0  0
  1  2  1  0  0  0
  1  3  2  0  0  0
  3 10  1  0  0  0
 10 11  1  0  0  0
 11 12  1  0  0  0
 12 13  1  0  0  0
 12 14  2  0  0  0
 14 16  1  0  0  0
M  END
> <minimizedAffinity>
-6.49315

> <CNNscore>
0.5757498741

> <CNNaffinity>
5.5109205246

> <CNN_VS>
3.1729118824

> <CNNaffinity_variance>
0.0605799556

$$$$
