/media/chris/experiments/cd1a-new-docking/inputs/ligands/6nux_ligand.pdb


 17 16  0  0  0  0  0  0  0  0999 V2000
  -38.4358   57.4868   61.4521 C   0  0  0  0  0  0  0  0  0  0  0  0
  -39.4883   58.1417   60.6034 C   0  0  0  0  0  0  0  0  0  0  0  0
  -38.8016   56.5712   62.3601 C   0  0  0  0  0  0  0  0  0  0  0  0
  -36.9742   57.8462   61.2871 C   0  0  0  0  0  0  0  0  0  0  0  0
  -36.1365   57.2256   62.4003 C   0  0  0  0  0  0  0  0  0  0  0  0
  -34.5151   58.7730   64.1852 C   0  0  0  0  0  0  0  0  0  0  0  0
  -33.9067   58.1479   62.9671 C   0  0  0  0  0  0  0  0  0  0  0  0
  -32.4466   58.3388   62.6866 C   0  0  0  0  0  0  0  0  0  0  0  0
  -34.6632   57.4245   62.1283 C   0  0  0  0  0  0  0  0  0  0  0  0
  -40.2583   56.2039   62.5255 C   0  0  0  0  0  0  0  0  0  0  0  0
  -40.7398   56.5793   63.9217 C   0  0  0  0  0  0  0  0  0  0  0  0
  -42.2267   56.8607   63.8996 C   0  0  0  0  0  0  0  0  0  0  0  0
  -42.8449   57.4918   62.6910 C   0  0  0  0  0  0  0  0  0  0  0  0
  -42.9952   56.5388   64.9506 C   0  0  0  0  0  0  0  0  0  0  0  0
  -45.0692   56.3705   66.1761 O   0  0  0  0  0  0  0  0  0  0  0  0
  -44.4828   56.8077   64.9451 C   0  0  0  0  0  0  0  0  0  0  0  0
  -46.0227   56.5480   66.1611 H   0  0  0  0  0  0  0  0  0  0  0  0
  6  7  1  0  0  0
 15 16  1  0  0  0
 15 17  1  0  0  0
  7  8  1  0  0  0
  7  9  2  0  0  0
  9  5  1  0  0  0
  5  4  1  0  0  0
  4  1  1  0  0  0
  1  2  1  0  0  0
  1  3  2  0  0  0
  3 10  1  0  0  0
 10 11  1  0  0  0
 11 12  1  0  0  0
 12 13  1  0  0  0
 12 14  2  0  0  0
 14 16  1  0  0  0
M  END
> <minimizedAffinity>
-6.99459

> <CNNscore>
0.6982333660

> <CNNaffinity>
5.7816467285

> <CNN_VS>
4.0369386673

> <CNNaffinity_variance>
0.0297407564

$$$$
/media/chris/experiments/cd1a-new-docking/inputs/ligands/6nux_ligand.pdb


 17 16  0  0  0  0  0  0  0  0999 V2000
  -36.5296   57.8259   62.4517 C   0  0  0  0  0  0  0  0  0  0  0  0
  -35.2303   57.0736   62.3990 C   0  0  0  0  0  0  0  0  0  0  0  0
  -36.6755   58.8217   63.3370 C   0  0  0  0  0  0  0  0  0  0  0  0
  -37.6662   57.4743   61.5151 C   0  0  0  0  0  0  0  0  0  0  0  0
  -38.7336   56.6628   62.2420 C   0  0  0  0  0  0  0  0  0  0  0  0
  -41.0863   55.2938   63.1366 C   0  0  0  0  0  0  0  0  0  0  0  0
  -41.2065   56.5891   62.3933 C   0  0  0  0  0  0  0  0  0  0  0  0
  -42.5639   57.1628   62.1183 C   0  0  0  0  0  0  0  0  0  0  0  0
  -40.1074   57.2317   61.9712 C   0  0  0  0  0  0  0  0  0  0  0  0
  -35.5426   59.1813   64.2705 C   0  0  0  0  0  0  0  0  0  0  0  0
  -34.9060   60.4978   63.8420 C   0  0  0  0  0  0  0  0  0  0  0  0
  -35.4476   61.6339   64.6826 C   0  0  0  0  0  0  0  0  0  0  0  0
  -36.3168   62.6761   64.0506 C   0  0  0  0  0  0  0  0  0  0  0  0
  -35.1628   61.7071   65.9912 C   0  0  0  0  0  0  0  0  0  0  0  0
  -34.7108   63.2416   67.8002 O   0  0  0  0  0  0  0  0  0  0  0  0
  -35.6984   62.8316   66.8479 C   0  0  0  0  0  0  0  0  0  0  0  0
  -35.0653   63.9626   68.3436 H   0  0  0  0  0  0  0  0  0  0  0  0
  6  7  1  0  0  0
 15 16  1  0  0  0
 15 17  1  0  0  0
  7  8  1  0  0  0
  7  9  2  0  0  0
  9  5  1  0  0  0
  5  4  1  0  0  0
  4  1  1  0  0  0
  1  2  1  0  0  0
  1  3  2  0  0  0
  3 10  1  0  0  0
 10 11  1  0  0  0
 11 12  1  0  0  0
 12 13  1  0  0  0
 12 14  2  0  0  0
 14 16  1  0  0  0
M  END
> <minimizedAffinity>
-6.63976

> <CNNscore>
0.6461385489

> <CNNaffinity>
5.3978714943

> <CNN_VS>
3.4877729416

> <CNNaffinity_variance>
0.0609683618

$$$$
/media/chris/experiments/cd1a-new-docking/inputs/ligands/6nux_ligand.pdb


 17 16  0  0  0  0  0  0  0  0999 V2000
  -38.7699   57.9313   61.1975 C   0  0  0  0  0  0  0  0  0  0  0  0
  -38.1160   59.1140   60.5415 C   0  0  0  0  0  0  0  0  0  0  0  0
  -38.0284   57.1045   61.9480 C   0  0  0  0  0  0  0  0  0  0  0  0
  -40.2513   57.6705   61.0234 C   0  0  0  0  0  0  0  0  0  0  0  0
  -40.6781   56.4348   61.8089 C   0  0  0  0  0  0  0  0  0  0  0  0
  -41.6293   54.4766   63.6718 C   0  0  0  0  0  0  0  0  0  0  0  0
  -42.1399   55.8838   63.7333 C   0  0  0  0  0  0  0  0  0  0  0  0
  -43.1525   56.2602   64.7726 C   0  0  0  0  0  0  0  0  0  0  0  0
  -41.6984   56.8026   62.8615 C   0  0  0  0  0  0  0  0  0  0  0  0
  -36.5504   57.3627   62.1303 C   0  0  0  0  0  0  0  0  0  0  0  0
  -36.1680   57.2141   63.5979 C   0  0  0  0  0  0  0  0  0  0  0  0
  -36.9615   58.1879   64.4421 C   0  0  0  0  0  0  0  0  0  0  0  0
  -38.1431   57.7022   65.2227 C   0  0  0  0  0  0  0  0  0  0  0  0
  -36.6069   59.4800   64.5038 C   0  0  0  0  0  0  0  0  0  0  0  0
  -38.2378   61.2608   64.5140 O   0  0  0  0  0  0  0  0  0  0  0  0
  -37.3843   60.4664   65.3451 C   0  0  0  0  0  0  0  0  0  0  0  0
  -38.7310   61.8893   65.0641 H   0  0  0  0  0  0  0  0  0  0  0  0
  6  7  1  0  0  0
 15 16  1  0  0  0
 15 17  1  0  0  0
  7  8  1  0  0  0
  7  9  2  0  0  0
  9  5  1  0  0  0
  5  4  1  0  0  0
  4  1  1  0  0  0
  1  2  1  0  0  0
  1  3  2  0  0  0
  3 10  1  0  0  0
 10 11  1  0  0  0
 11 12  1  0  0  0
 12 13  1  0  0  0
 12 14  2  0  0  0
 14 16  1  0  0  0
M  END
> <minimizedAffinity>
-6.75939

> <CNNscore>
0.6289129853

> <CNNaffinity>
5.5608706474

> <CNN_VS>
3.4973037243

> <CNNaffinity_variance>
0.0288814995

$$$$
/media/chris/experiments/cd1a-new-docking/inputs/ligands/6nux_ligand.pdb


 17 16  0  0  0  0  0  0  0  0999 V2000
  -38.4074   57.5468   61.3976 C   0  0  0  0  0  0  0  0  0  0  0  0
  -39.4589   58.2068   60.5516 C   0  0  0  0  0  0  0  0  0  0  0  0
  -38.7744   56.6271   62.3009 C   0  0  0  0  0  0  0  0  0  0  0  0
  -36.9454   57.9058   61.2352 C   0  0  0  0  0  0  0  0  0  0  0  0
  -36.0982   57.2140   62.2981 C   0  0  0  0  0  0  0  0  0  0  0  0
  -34.5410   58.8187   64.0897 C   0  0  0  0  0  0  0  0  0  0  0  0
  -33.9016   58.2021   62.8831 C   0  0  0  0  0  0  0  0  0  0  0  0
  -32.4442   58.4317   62.6176 C   0  0  0  0  0  0  0  0  0  0  0  0
  -34.6279   57.4520   62.0412 C   0  0  0  0  0  0  0  0  0  0  0  0
  -40.2316   56.2602   62.4638 C   0  0  0  0  0  0  0  0  0  0  0  0
  -40.6623   56.4488   63.9132 C   0  0  0  0  0  0  0  0  0  0  0  0
  -40.8262   57.9221   64.2184 C   0  0  0  0  0  0  0  0  0  0  0  0
  -41.8550   58.7227   63.4823 C   0  0  0  0  0  0  0  0  0  0  0  0
  -40.0637   58.5122   65.1507 C   0  0  0  0  0  0  0  0  0  0  0  0
  -39.1601   60.4100   66.3394 O   0  0  0  0  0  0  0  0  0  0  0  0
  -40.2161   59.9813   65.4726 C   0  0  0  0  0  0  0  0  0  0  0  0
  -39.2681   61.3531   66.5388 H   0  0  0  0  0  0  0  0  0  0  0  0
  6  7  1  0  0  0
 15 16  1  0  0  0
 15 17  1  0  0  0
  7  8  1  0  0  0
  7  9  2  0  0  0
  9  5  1  0  0  0
  5  4  1  0  0  0
  4  1  1  0  0  0
  1  2  1  0  0  0
  1  3  2  0  0  0
  3 10  1  0  0  0
 10 11  1  0  0  0
 11 12  1  0  0  0
 12 13  1  0  0  0
 12 14  2  0  0  0
 14 16  1  0  0  0
M  END
> <minimizedAffinity>
-6.87108

> <CNNscore>
0.6014147997

> <CNNaffinity>
5.5756320953

> <CNN_VS>
3.3532676697

> <CNNaffinity_variance>
0.0180079304

$$$$
/media/chris/experiments/cd1a-new-docking/inputs/ligands/6nux_ligand.pdb


 17 16  0  0  0  0  0  0  0  0999 V2000
  -37.5158   57.2733   63.6526 C   0  0  0  0  0  0  0  0  0  0  0  0
  -38.5134   57.6897   64.6957 C   0  0  0  0  0  0  0  0  0  0  0  0
  -37.9541   56.8217   62.4691 C   0  0  0  0  0  0  0  0  0  0  0  0
  -36.0288   57.3644   63.9235 C   0  0  0  0  0  0  0  0  0  0  0  0
  -35.2340   57.2116   62.6307 C   0  0  0  0  0  0  0  0  0  0  0  0
  -32.5261   56.4977   62.0250 C   0  0  0  0  0  0  0  0  0  0  0  0
  -32.8921   57.9320   62.2563 C   0  0  0  0  0  0  0  0  0  0  0  0
  -31.8337   58.9902   62.1716 C   0  0  0  0  0  0  0  0  0  0  0  0
  -34.1584   58.2697   62.5421 C   0  0  0  0  0  0  0  0  0  0  0  0
  -39.4370   56.7338   62.1905 C   0  0  0  0  0  0  0  0  0  0  0  0
  -39.7961   57.5883   60.9810 C   0  0  0  0  0  0  0  0  0  0  0  0
  -40.1229   58.9991   61.4209 C   0  0  0  0  0  0  0  0  0  0  0  0
  -39.5116   60.1613   60.7018 C   0  0  0  0  0  0  0  0  0  0  0  0
  -40.9641   59.2149   62.4430 C   0  0  0  0  0  0  0  0  0  0  0  0
  -40.8761   60.8211   64.2440 O   0  0  0  0  0  0  0  0  0  0  0  0
  -41.3061   60.6167   62.8936 C   0  0  0  0  0  0  0  0  0  0  0  0
  -41.1006   61.7229   64.5219 H   0  0  0  0  0  0  0  0  0  0  0  0
  6  7  1  0  0  0
 15 16  1  0  0  0
 15 17  1  0  0  0
  7  8  1  0  0  0
  7  9  2  0  0  0
  9  5  1  0  0  0
  5  4  1  0  0  0
  4  1  1  0  0  0
  1  2  1  0  0  0
  1  3  2  0  0  0
  3 10  1  0  0  0
 10 11  1  0  0  0
 11 12  1  0  0  0
 12 13  1  0  0  0
 12 14  2  0  0  0
 14 16  1  0  0  0
M  END
> <minimizedAffinity>
-6.82741

> <CNNscore>
0.5943270326

> <CNNaffinity>
5.4931836128

> <CNN_VS>
3.2647476196

> <CNNaffinity_variance>
0.0497863591

$$$$
/media/chris/experiments/cd1a-new-docking/inputs/ligands/6nux_ligand.pdb


 17 16  0  0  0  0  0  0  0  0999 V2000
  -38.5345   57.6427   61.3444 C   0  0  0  0  0  0  0  0  0  0  0  0
  -38.3579   58.7540   60.3491 C   0  0  0  0  0  0  0  0  0  0  0  0
  -37.4608   57.1586   61.9845 C   0  0  0  0  0  0  0  0  0  0  0  0
  -39.9073   57.0726   61.6326 C   0  0  0  0  0  0  0  0  0  0  0  0
  -40.0204   56.6493   63.0936 C   0  0  0  0  0  0  0  0  0  0  0  0
  -38.5129   57.9054   65.1813 C   0  0  0  0  0  0  0  0  0  0  0  0
  -39.9160   58.3468   64.8966 C   0  0  0  0  0  0  0  0  0  0  0  0
  -40.5269   59.4467   65.7116 C   0  0  0  0  0  0  0  0  0  0  0  0
  -40.6254   57.7596   63.9214 C   0  0  0  0  0  0  0  0  0  0  0  0
  -36.0887   57.7274   61.7054 C   0  0  0  0  0  0  0  0  0  0  0  0
  -35.1735   57.5042   62.9033 C   0  0  0  0  0  0  0  0  0  0  0  0
  -33.7259   57.6366   62.4822 C   0  0  0  0  0  0  0  0  0  0  0  0
  -33.0368   56.4837   61.8208 C   0  0  0  0  0  0  0  0  0  0  0  0
  -33.0601   58.7826   62.6878 C   0  0  0  0  0  0  0  0  0  0  0  0
  -31.4610   60.0888   61.4357 O   0  0  0  0  0  0  0  0  0  0  0  0
  -31.6154   58.9352   62.2697 C   0  0  0  0  0  0  0  0  0  0  0  0
  -30.5311   60.1765   61.1740 H   0  0  0  0  0  0  0  0  0  0  0  0
  6  7  1  0  0  0
 15 16  1  0  0  0
 15 17  1  0  0  0
  7  8  1  0  0  0
  7  9  2  0  0  0
  9  5  1  0  0  0
  5  4  1  0  0  0
  4  1  1  0  0  0
  1  2  1  0  0  0
  1  3  2  0  0  0
  3 10  1  0  0  0
 10 11  1  0  0  0
 11 12  1  0  0  0
 12 13  1  0  0  0
 12 14  2  0  0  0
 14 16  1  0  0  0
M  END
> <minimizedAffinity>
-6.99014

> <CNNscore>
0.5754154921

> <CNNaffinity>
5.6724476814

> <CNN_VS>
3.2640142441

> <CNNaffinity_variance>
0.0590875857

$$$$
/media/chris/experiments/cd1a-new-docking/inputs/ligands/6nux_ligand.pdb


 17 16  0  0  0  0  0  0  0  0999 V2000
  -37.2007   58.5018   63.2071 C   0  0  0  0  0  0  0  0  0  0  0  0
  -37.3617   58.1495   64.6586 C   0  0  0  0  0  0  0  0  0  0  0  0
  -37.4096   59.7654   62.8118 C   0  0  0  0  0  0  0  0  0  0  0  0
  -36.8014   57.4490   62.1947 C   0  0  0  0  0  0  0  0  0  0  0  0
  -35.4597   56.8251   62.5650 C   0  0  0  0  0  0  0  0  0  0  0  0
  -33.6111   58.1431   64.3128 C   0  0  0  0  0  0  0  0  0  0  0  0
  -33.4564   58.2609   62.8273 C   0  0  0  0  0  0  0  0  0  0  0  0
  -32.3312   59.0739   62.2613 C   0  0  0  0  0  0  0  0  0  0  0  0
  -34.3211   57.6470   62.0061 C   0  0  0  0  0  0  0  0  0  0  0  0
  -37.8027   60.8220   63.8185 C   0  0  0  0  0  0  0  0  0  0  0  0
  -36.8459   62.0054   63.7393 C   0  0  0  0  0  0  0  0  0  0  0  0
  -36.1221   62.1767   65.0573 C   0  0  0  0  0  0  0  0  0  0  0  0
  -35.1917   61.1067   65.5379 C   0  0  0  0  0  0  0  0  0  0  0  0
  -36.3004   63.2846   65.7919 C   0  0  0  0  0  0  0  0  0  0  0  0
  -36.4243   63.0715   68.1941 O   0  0  0  0  0  0  0  0  0  0  0  0
  -35.5826   63.4756   67.1085 C   0  0  0  0  0  0  0  0  0  0  0  0
  -35.9537   63.1983   69.0327 H   0  0  0  0  0  0  0  0  0  0  0  0
  6  7  1  0  0  0
 15 16  1  0  0  0
 15 17  1  0  0  0
  7  8  1  0  0  0
  7  9  2  0  0  0
  9  5  1  0  0  0
  5  4  1  0  0  0
  4  1  1  0  0  0
  1  2  1  0  0  0
  1  3  2  0  0  0
  3 10  1  0  0  0
 10 11  1  0  0  0
 11 12  1  0  0  0
 12 13  1  0  0  0
 12 14  2  0  0  0
 14 16  1  0  0  0
M  END
> <minimizedAffinity>
-6.32549

> <CNNscore>
0.4414202869

> <CNNaffinity>
5.1921739578

> <CNN_VS>
2.2919309139

> <CNNaffinity_variance>
0.1832228005

$$$$
/media/chris/experiments/cd1a-new-docking/inputs/ligands/6nux_ligand.pdb


 17 16  0  0  0  0  0  0  0  0999 V2000
  -49.2751   60.0594   62.3256 C   0  0  0  0  0  0  0  0  0  0  0  0
  -49.8925   58.6946   62.4401 C   0  0  0  0  0  0  0  0  0  0  0  0
  -49.1046   60.7970   63.4317 C   0  0  0  0  0  0  0  0  0  0  0  0
  -48.8416   60.6025   60.9803 C   0  0  0  0  0  0  0  0  0  0  0  0
  -47.3317   60.4738   60.8071 C   0  0  0  0  0  0  0  0  0  0  0  0
  -46.5584   57.7198   60.6431 C   0  0  0  0  0  0  0  0  0  0  0  0
  -46.6437   58.5525   59.4005 C   0  0  0  0  0  0  0  0  0  0  0  0
  -46.3198   57.9374   58.0723 C   0  0  0  0  0  0  0  0  0  0  0  0
  -47.0034   59.8425   59.4737 C   0  0  0  0  0  0  0  0  0  0  0  0
  -49.5300   60.2581   64.7782 C   0  0  0  0  0  0  0  0  0  0  0  0
  -48.3194   59.7337   65.5408 C   0  0  0  0  0  0  0  0  0  0  0  0
  -48.6222   58.3686   66.1198 C   0  0  0  0  0  0  0  0  0  0  0  0
  -50.0326   57.8669   66.1396 C   0  0  0  0  0  0  0  0  0  0  0  0
  -47.6347   57.6017   66.6051 C   0  0  0  0  0  0  0  0  0  0  0  0
  -47.5732   55.2160   66.2361 O   0  0  0  0  0  0  0  0  0  0  0  0
  -47.9171   56.2336   67.1830 C   0  0  0  0  0  0  0  0  0  0  0  0
  -47.7584   54.3436   66.6175 H   0  0  0  0  0  0  0  0  0  0  0  0
  6  7  1  0  0  0
 15 16  1  0  0  0
 15 17  1  0  0  0
  7  8  1  0  0  0
  7  9  2  0  0  0
  9  5  1  0  0  0
  5  4  1  0  0  0
  4  1  1  0  0  0
  1  2  1  0  0  0
  1  3  2  0  0  0
  3 10  1  0  0  0
 10 11  1  0  0  0
 11 12  1  0  0  0
 12 13  1  0  0  0
 12 14  2  0  0  0
 14 16  1  0  0  0
M  END
> <minimizedAffinity>
-6.84695

> <CNNscore>
0.4317244291

> <CNNaffinity>
5.6452713013

> <CNN_VS>
2.4372014999

> <CNNaffinity_variance>
0.0982953683

$$$$
/media/chris/experiments/cd1a-new-docking/inputs/ligands/6nux_ligand.pdb


 17 16  0  0  0  0  0  0  0  0999 V2000
  -34.4139   58.3825   63.0249 C   0  0  0  0  0  0  0  0  0  0  0  0
  -32.9805   58.8296   62.9759 C   0  0  0  0  0  0  0  0  0  0  0  0
  -35.1967   58.7986   64.0302 C   0  0  0  0  0  0  0  0  0  0  0  0
  -34.9792   57.4762   61.9517 C   0  0  0  0  0  0  0  0  0  0  0  0
  -36.4254   57.1059   62.2643 C   0  0  0  0  0  0  0  0  0  0  0  0
  -39.2325   56.5324   62.2946 C   0  0  0  0  0  0  0  0  0  0  0  0
  -38.6840   57.5561   61.3480 C   0  0  0  0  0  0  0  0  0  0  0  0
  -39.6114   58.2759   60.4158 C   0  0  0  0  0  0  0  0  0  0  0  0
  -37.3702   57.8256   61.3296 C   0  0  0  0  0  0  0  0  0  0  0  0
  -34.6399   59.7081   65.1013 C   0  0  0  0  0  0  0  0  0  0  0  0
  -35.6139   60.8456   65.3835 C   0  0  0  0  0  0  0  0  0  0  0  0
  -35.3009   62.0294   64.4940 C   0  0  0  0  0  0  0  0  0  0  0  0
  -34.1338   62.9106   64.8143 C   0  0  0  0  0  0  0  0  0  0  0  0
  -36.0554   62.2877   63.4156 C   0  0  0  0  0  0  0  0  0  0  0  0
  -34.8398   63.0739   61.4829 O   0  0  0  0  0  0  0  0  0  0  0  0
  -35.7555   63.4625   62.5128 C   0  0  0  0  0  0  0  0  0  0  0  0
  -34.6550   63.8348   60.9104 H   0  0  0  0  0  0  0  0  0  0  0  0
  6  7  1  0  0  0
 15 16  1  0  0  0
 15 17  1  0  0  0
  7  8  1  0  0  0
  7  9  2  0  0  0
  9  5  1  0  0  0
  5  4  1  0  0  0
  4  1  1  0  0  0
  1  2  1  0  0  0
  1  3  2  0  0  0
  3 10  1  0  0  0
 10 11  1  0  0  0
 11 12  1  0  0  0
 12 13  1  0  0  0
 12 14  2  0  0  0
 14 16  1  0  0  0
M  END
> <minimizedAffinity>
-6.83230

> <CNNscore>
0.4207417667

> <CNNaffinity>
5.0088038445

> <CNN_VS>
2.1074130535

> <CNNaffinity_variance>
0.1350181997

$$$$
