/media/chris/experiments/cd1a-new-docking/inputs/ligands/6nux_ligand.pdb


 17 16  0  0  0  0  0  0  0  0999 V2000
  -38.4712   57.5546   61.4262 C   0  0  0  0  0  0  0  0  0  0  0  0
  -39.5449   58.2197   60.6127 C   0  0  0  0  0  0  0  0  0  0  0  0
  -38.8130   56.6212   62.3254 C   0  0  0  0  0  0  0  0  0  0  0  0
  -37.0151   57.9237   61.2357 C   0  0  0  0  0  0  0  0  0  0  0  0
  -36.1416   57.2305   62.2762 C   0  0  0  0  0  0  0  0  0  0  0  0
  -34.5361   58.4656   64.3025 C   0  0  0  0  0  0  0  0  0  0  0  0
  -33.9324   58.1075   62.9789 C   0  0  0  0  0  0  0  0  0  0  0  0
  -32.4854   58.4015   62.7203 C   0  0  0  0  0  0  0  0  0  0  0  0
  -34.6816   57.5311   62.0272 C   0  0  0  0  0  0  0  0  0  0  0  0
  -40.2641   56.2443   62.5161 C   0  0  0  0  0  0  0  0  0  0  0  0
  -40.7075   56.5633   63.9387 C   0  0  0  0  0  0  0  0  0  0  0  0
  -42.2083   56.7523   63.9845 C   0  0  0  0  0  0  0  0  0  0  0  0
  -42.9125   57.3862   62.8252 C   0  0  0  0  0  0  0  0  0  0  0  0
  -42.9125   56.3463   65.0514 C   0  0  0  0  0  0  0  0  0  0  0  0
  -44.8575   56.5005   66.4741 O   0  0  0  0  0  0  0  0  0  0  0  0
  -44.4126   56.5223   65.1132 C   0  0  0  0  0  0  0  0  0  0  0  0
  -45.8205   56.6142   66.5013 H   0  0  0  0  0  0  0  0  0  0  0  0
  6  7  1  0  0  0
 15 16  1  0  0  0
 15 17  1  0  0  0
  7  8  1  0  0  0
  7  9  2  0  0  0
  9  5  1  0  0  0
  5  4  1  0  0  0
  4  1  1  0  0  0
  1  2  1  0  0  0
  1  3  2  0  0  0
  3 10  1  0  0  0
 10 11  1  0  0  0
 11 12  1  0  0  0
 12 13  1  0  0  0
 12 14  2  0  0  0
 14 16  1  0  0  0
M  END
> <minimizedAffinity>
-7.02703

> <CNNscore>
0.7537558079

> <CNNaffinity>
5.7990179062

> <CNN_VS>
4.3710432053

> <CNNaffinity_variance>
0.0252629276

$$$$
/media/chris/experiments/cd1a-new-docking/inputs/ligands/6nux_ligand.pdb


 17 16  0  0  0  0  0  0  0  0999 V2000
  -47.9692   59.8941   61.4396 C   0  0  0  0  0  0  0  0  0  0  0  0
  -49.1526   60.5616   60.7985 C   0  0  0  0  0  0  0  0  0  0  0  0
  -48.0732   59.4411   62.6968 C   0  0  0  0  0  0  0  0  0  0  0  0
  -46.6703   59.7250   60.6799 C   0  0  0  0  0  0  0  0  0  0  0  0
  -46.9339   59.2202   59.2651 C   0  0  0  0  0  0  0  0  0  0  0  0
  -48.9808   57.2244   59.0738 C   0  0  0  0  0  0  0  0  0  0  0  0
  -47.5369   56.8249   59.0582 C   0  0  0  0  0  0  0  0  0  0  0  0
  -47.1699   55.3759   58.9448 C   0  0  0  0  0  0  0  0  0  0  0  0
  -46.5760   57.7564   59.1497 C   0  0  0  0  0  0  0  0  0  0  0  0
  -49.3689   59.6017   63.4582 C   0  0  0  0  0  0  0  0  0  0  0  0
  -49.7146   58.3083   64.1860 C   0  0  0  0  0  0  0  0  0  0  0  0
  -49.0370   58.2770   65.5389 C   0  0  0  0  0  0  0  0  0  0  0  0
  -49.1829   59.4407   66.4694 C   0  0  0  0  0  0  0  0  0  0  0  0
  -48.3160   57.2099   65.9137 C   0  0  0  0  0  0  0  0  0  0  0  0
  -46.5817   56.1895   67.2486 O   0  0  0  0  0  0  0  0  0  0  0  0
  -47.6360   57.1583   67.2628 C   0  0  0  0  0  0  0  0  0  0  0  0
  -46.1531   56.1653   68.1185 H   0  0  0  0  0  0  0  0  0  0  0  0
  6  7  1  0  0  0
 15 16  1  0  0  0
 15 17  1  0  0  0
  7  8  1  0  0  0
  7  9  2  0  0  0
  9  5  1  0  0  0
  5  4  1  0  0  0
  4  1  1  0  0  0
  1  2  1  0  0  0
  1  3  2  0  0  0
  3 10  1  0  0  0
 10 11  1  0  0  0
 11 12  1  0  0  0
 12 13  1  0  0  0
 12 14  2  0  0  0
 14 16  1  0  0  0
M  END
> <minimizedAffinity>
-6.71477

> <CNNscore>
0.6839015484

> <CNNaffinity>
5.9074106216

> <CNN_VS>
4.0400872231

> <CNNaffinity_variance>
0.1099685207

$$$$
/media/chris/experiments/cd1a-new-docking/inputs/ligands/6nux_ligand.pdb


 17 16  0  0  0  0  0  0  0  0999 V2000
  -38.4753   57.5664   61.3820 C   0  0  0  0  0  0  0  0  0  0  0  0
  -39.5386   58.2510   60.5711 C   0  0  0  0  0  0  0  0  0  0  0  0
  -38.8309   56.6298   62.2726 C   0  0  0  0  0  0  0  0  0  0  0  0
  -37.0144   57.9194   61.1984 C   0  0  0  0  0  0  0  0  0  0  0  0
  -36.1673   57.3077   62.3095 C   0  0  0  0  0  0  0  0  0  0  0  0
  -34.4873   58.2906   64.4121 C   0  0  0  0  0  0  0  0  0  0  0  0
  -33.9159   58.0318   63.0515 C   0  0  0  0  0  0  0  0  0  0  0  0
  -32.4619   58.2925   62.7963 C   0  0  0  0  0  0  0  0  0  0  0  0
  -34.6999   57.5736   62.0642 C   0  0  0  0  0  0  0  0  0  0  0  0
  -40.2870   56.2689   62.4562 C   0  0  0  0  0  0  0  0  0  0  0  0
  -40.6946   56.4536   63.9129 C   0  0  0  0  0  0  0  0  0  0  0  0
  -40.8484   57.9262   64.2260 C   0  0  0  0  0  0  0  0  0  0  0  0
  -41.8726   58.7376   63.4950 C   0  0  0  0  0  0  0  0  0  0  0  0
  -40.0813   58.5063   65.1609 C   0  0  0  0  0  0  0  0  0  0  0  0
  -39.1331   60.4050   66.3128 O   0  0  0  0  0  0  0  0  0  0  0  0
  -40.2237   59.9747   65.4908 C   0  0  0  0  0  0  0  0  0  0  0  0
  -39.2351   61.3477   66.5179 H   0  0  0  0  0  0  0  0  0  0  0  0
  6  7  1  0  0  0
 15 16  1  0  0  0
 15 17  1  0  0  0
  7  8  1  0  0  0
  7  9  2  0  0  0
  9  5  1  0  0  0
  5  4  1  0  0  0
  4  1  1  0  0  0
  1  2  1  0  0  0
  1  3  2  0  0  0
  3 10  1  0  0  0
 10 11  1  0  0  0
 11 12  1  0  0  0
 12 13  1  0  0  0
 12 14  2  0  0  0
 14 16  1  0  0  0
M  END
> <minimizedAffinity>
-6.87621

> <CNNscore>
0.6517803073

> <CNNaffinity>
5.6103677750

> <CNN_VS>
3.6567273140

> <CNNaffinity_variance>
0.0225051083

$$$$
/media/chris/experiments/cd1a-new-docking/inputs/ligands/6nux_ligand.pdb


 17 16  0  0  0  0  0  0  0  0999 V2000
  -38.7186   57.8465   61.2009 C   0  0  0  0  0  0  0  0  0  0  0  0
  -37.9830   58.9160   60.4447 C   0  0  0  0  0  0  0  0  0  0  0  0
  -38.0407   57.0551   62.0441 C   0  0  0  0  0  0  0  0  0  0  0  0
  -40.2108   57.6602   61.0237 C   0  0  0  0  0  0  0  0  0  0  0  0
  -40.6974   56.4364   61.7930 C   0  0  0  0  0  0  0  0  0  0  0  0
  -41.5986   54.5123   63.7151 C   0  0  0  0  0  0  0  0  0  0  0  0
  -42.0032   55.9492   63.8427 C   0  0  0  0  0  0  0  0  0  0  0  0
  -42.8837   56.3733   64.9794 C   0  0  0  0  0  0  0  0  0  0  0  0
  -41.5848   56.8524   62.9435 C   0  0  0  0  0  0  0  0  0  0  0  0
  -36.5522   57.2398   62.2297 C   0  0  0  0  0  0  0  0  0  0  0  0
  -36.1935   57.1638   63.7088 C   0  0  0  0  0  0  0  0  0  0  0  0
  -37.0082   58.1697   64.4928 C   0  0  0  0  0  0  0  0  0  0  0  0
  -38.2086   57.7141   65.2629 C   0  0  0  0  0  0  0  0  0  0  0  0
  -36.6561   59.4638   64.5108 C   0  0  0  0  0  0  0  0  0  0  0  0
  -38.4021   61.1302   64.4358 O   0  0  0  0  0  0  0  0  0  0  0  0
  -37.4547   60.4823   65.2920 C   0  0  0  0  0  0  0  0  0  0  0  0
  -38.9081   61.7808   64.9474 H   0  0  0  0  0  0  0  0  0  0  0  0
  6  7  1  0  0  0
 15 16  1  0  0  0
 15 17  1  0  0  0
  7  8  1  0  0  0
  7  9  2  0  0  0
  9  5  1  0  0  0
  5  4  1  0  0  0
  4  1  1  0  0  0
  1  2  1  0  0  0
  1  3  2  0  0  0
  3 10  1  0  0  0
 10 11  1  0  0  0
 11 12  1  0  0  0
 12 13  1  0  0  0
 12 14  2  0  0  0
 14 16  1  0  0  0
M  END
> <minimizedAffinity>
-6.80527

> <CNNscore>
0.6063790321

> <CNNaffinity>
5.5394525528

> <CNN_VS>
3.3590078354

> <CNNaffinity_variance>
0.0392721631

$$$$
/media/chris/experiments/cd1a-new-docking/inputs/ligands/6nux_ligand.pdb


 17 16  0  0  0  0  0  0  0  0999 V2000
  -40.1453   56.7392   62.8819 C   0  0  0  0  0  0  0  0  0  0  0  0
  -39.5620   57.2071   61.5789 C   0  0  0  0  0  0  0  0  0  0  0  0
  -39.6311   57.1962   64.0323 C   0  0  0  0  0  0  0  0  0  0  0  0
  -41.3054   55.7665   62.9057 C   0  0  0  0  0  0  0  0  0  0  0  0
  -41.6926   55.4228   64.3404 C   0  0  0  0  0  0  0  0  0  0  0  0
  -42.7458   57.4362   66.0857 C   0  0  0  0  0  0  0  0  0  0  0  0
  -43.6734   56.5159   65.3528 C   0  0  0  0  0  0  0  0  0  0  0  0
  -45.1544   56.6529   65.5400 C   0  0  0  0  0  0  0  0  0  0  0  0
  -43.1838   55.5708   64.5365 C   0  0  0  0  0  0  0  0  0  0  0  0
  -38.4769   58.1718   64.0150 C   0  0  0  0  0  0  0  0  0  0  0  0
  -37.2369   57.5299   64.6252 C   0  0  0  0  0  0  0  0  0  0  0  0
  -36.0385   57.7625   63.7308 C   0  0  0  0  0  0  0  0  0  0  0  0
  -36.0108   57.1678   62.3571 C   0  0  0  0  0  0  0  0  0  0  0  0
  -35.0066   58.5062   64.1564 C   0  0  0  0  0  0  0  0  0  0  0  0
  -33.7891   60.1135   62.8277 O   0  0  0  0  0  0  0  0  0  0  0  0
  -33.8032   58.7535   63.2755 C   0  0  0  0  0  0  0  0  0  0  0  0
  -33.0134   60.2603   62.2641 H   0  0  0  0  0  0  0  0  0  0  0  0
  6  7  1  0  0  0
 15 16  1  0  0  0
 15 17  1  0  0  0
  7  8  1  0  0  0
  7  9  2  0  0  0
  9  5  1  0  0  0
  5  4  1  0  0  0
  4  1  1  0  0  0
  1  2  1  0  0  0
  1  3  2  0  0  0
  3 10  1  0  0  0
 10 11  1  0  0  0
 11 12  1  0  0  0
 12 13  1  0  0  0
 12 14  2  0  0  0
 14 16  1  0  0  0
M  END
> <minimizedAffinity>
-6.39652

> <CNNscore>
0.6061611176

> <CNNaffinity>
5.7129001617

> <CNN_VS>
3.4629378319

> <CNNaffinity_variance>
0.0322198756

$$$$
/media/chris/experiments/cd1a-new-docking/inputs/ligands/6nux_ligand.pdb


 17 16  0  0  0  0  0  0  0  0999 V2000
  -37.7213   59.0170   62.0028 C   0  0  0  0  0  0  0  0  0  0  0  0
  -38.4746   59.7809   60.9511 C   0  0  0  0  0  0  0  0  0  0  0  0
  -37.3569   59.6409   63.1318 C   0  0  0  0  0  0  0  0  0  0  0  0
  -37.3778   57.5562   61.8015 C   0  0  0  0  0  0  0  0  0  0  0  0
  -36.1960   57.1536   62.6777 C   0  0  0  0  0  0  0  0  0  0  0  0
  -34.0350   58.3004   64.1689 C   0  0  0  0  0  0  0  0  0  0  0  0
  -33.8807   58.0380   62.7019 C   0  0  0  0  0  0  0  0  0  0  0  0
  -32.5911   58.3813   62.0191 C   0  0  0  0  0  0  0  0  0  0  0  0
  -34.8910   57.5032   62.0002 C   0  0  0  0  0  0  0  0  0  0  0  0
  -37.7020   61.0974   63.3412 C   0  0  0  0  0  0  0  0  0  0  0  0
  -36.4411   61.9507   63.2780 C   0  0  0  0  0  0  0  0  0  0  0  0
  -36.0150   62.3512   64.6738 C   0  0  0  0  0  0  0  0  0  0  0  0
  -35.3468   61.3486   65.5625 C   0  0  0  0  0  0  0  0  0  0  0  0
  -36.2221   63.6006   65.1157 C   0  0  0  0  0  0  0  0  0  0  0  0
  -36.9095   63.9403   67.4055 O   0  0  0  0  0  0  0  0  0  0  0  0
  -35.7992   64.0205   66.5050 C   0  0  0  0  0  0  0  0  0  0  0  0
  -36.6265   64.2118   68.2927 H   0  0  0  0  0  0  0  0  0  0  0  0
  6  7  1  0  0  0
 15 16  1  0  0  0
 15 17  1  0  0  0
  7  8  1  0  0  0
  7  9  2  0  0  0
  9  5  1  0  0  0
  5  4  1  0  0  0
  4  1  1  0  0  0
  1  2  1  0  0  0
  1  3  2  0  0  0
  3 10  1  0  0  0
 10 11  1  0  0  0
 11 12  1  0  0  0
 12 13  1  0  0  0
 12 14  2  0  0  0
 14 16  1  0  0  0
M  END
> <minimizedAffinity>
-6.57171

> <CNNscore>
0.5875933766

> <CNNaffinity>
5.3031945229

> <CNN_VS>
3.1161220074

> <CNNaffinity_variance>
0.0730158985

$$$$
/media/chris/experiments/cd1a-new-docking/inputs/ligands/6nux_ligand.pdb


 17 16  0  0  0  0  0  0  0  0999 V2000
  -37.5235   57.2914   63.7056 C   0  0  0  0  0  0  0  0  0  0  0  0
  -38.5333   57.6916   64.7433 C   0  0  0  0  0  0  0  0  0  0  0  0
  -37.9480   56.8540   62.5118 C   0  0  0  0  0  0  0  0  0  0  0  0
  -36.0398   57.3830   63.9934 C   0  0  0  0  0  0  0  0  0  0  0  0
  -35.2285   57.1731   62.7191 C   0  0  0  0  0  0  0  0  0  0  0  0
  -32.5060   56.5283   62.1017 C   0  0  0  0  0  0  0  0  0  0  0  0
  -32.9199   57.9579   62.2736 C   0  0  0  0  0  0  0  0  0  0  0  0
  -31.9016   59.0477   62.1235 C   0  0  0  0  0  0  0  0  0  0  0  0
  -34.1932   58.2633   62.5647 C   0  0  0  0  0  0  0  0  0  0  0  0
  -39.4276   56.7659   62.2163 C   0  0  0  0  0  0  0  0  0  0  0  0
  -39.7653   57.5828   60.9751 C   0  0  0  0  0  0  0  0  0  0  0  0
  -40.1077   59.0040   61.3664 C   0  0  0  0  0  0  0  0  0  0  0  0
  -39.4580   60.1478   60.6515 C   0  0  0  0  0  0  0  0  0  0  0  0
  -40.9965   59.2454   62.3415 C   0  0  0  0  0  0  0  0  0  0  0  0
  -42.1479   60.6474   63.9351 O   0  0  0  0  0  0  0  0  0  0  0  0
  -41.3547   60.6581   62.7430 C   0  0  0  0  0  0  0  0  0  0  0  0
  -42.3714   61.5583   64.1828 H   0  0  0  0  0  0  0  0  0  0  0  0
  6  7  1  0  0  0
 15 16  1  0  0  0
 15 17  1  0  0  0
  7  8  1  0  0  0
  7  9  2  0  0  0
  9  5  1  0  0  0
  5  4  1  0  0  0
  4  1  1  0  0  0
  1  2  1  0  0  0
  1  3  2  0  0  0
  3 10  1  0  0  0
 10 11  1  0  0  0
 11 12  1  0  0  0
 12 13  1  0  0  0
 12 14  2  0  0  0
 14 16  1  0  0  0
M  END
> <minimizedAffinity>
-6.67895

> <CNNscore>
0.5707457066

> <CNNaffinity>
5.4458875656

> <CNN_VS>
3.1082170010

> <CNNaffinity_variance>
0.0451074541

$$$$
/media/chris/experiments/cd1a-new-docking/inputs/ligands/6nux_ligand.pdb


 17 16  0  0  0  0  0  0  0  0999 V2000
  -39.0299   57.0149   62.0660 C   0  0  0  0  0  0  0  0  0  0  0  0
  -39.0477   57.8994   60.8518 C   0  0  0  0  0  0  0  0  0  0  0  0
  -37.9628   57.0355   62.8769 C   0  0  0  0  0  0  0  0  0  0  0  0
  -40.2023   56.1103   62.3820 C   0  0  0  0  0  0  0  0  0  0  0  0
  -41.0511   56.6986   63.5044 C   0  0  0  0  0  0  0  0  0  0  0  0
  -42.1819   59.1753   62.6122 C   0  0  0  0  0  0  0  0  0  0  0  0
  -43.0266   57.9391   62.6667 C   0  0  0  0  0  0  0  0  0  0  0  0
  -44.4664   58.0064   62.2547 C   0  0  0  0  0  0  0  0  0  0  0  0
  -42.5011   56.7784   63.0859 C   0  0  0  0  0  0  0  0  0  0  0  0
  -36.7919   57.9406   62.5700 C   0  0  0  0  0  0  0  0  0  0  0  0
  -35.5620   57.1099   62.2242 C   0  0  0  0  0  0  0  0  0  0  0  0
  -34.3109   57.8060   62.7144 C   0  0  0  0  0  0  0  0  0  0  0  0
  -34.2524   58.3272   64.1168 C   0  0  0  0  0  0  0  0  0  0  0  0
  -33.2512   57.9496   61.9049 C   0  0  0  0  0  0  0  0  0  0  0  0
  -32.0027   60.0150   61.9861 O   0  0  0  0  0  0  0  0  0  0  0  0
  -31.9912   58.6379   62.3782 C   0  0  0  0  0  0  0  0  0  0  0  0
  -31.1902   60.4458   62.2949 H   0  0  0  0  0  0  0  0  0  0  0  0
  6  7  1  0  0  0
 15 16  1  0  0  0
 15 17  1  0  0  0
  7  8  1  0  0  0
  7  9  2  0  0  0
  9  5  1  0  0  0
  5  4  1  0  0  0
  4  1  1  0  0  0
  1  2  1  0  0  0
  1  3  2  0  0  0
  3 10  1  0  0  0
 10 11  1  0  0  0
 11 12  1  0  0  0
 12 13  1  0  0  0
 12 14  2  0  0  0
 14 16  1  0  0  0
M  END
> <minimizedAffinity>
-6.40700

> <CNNscore>
0.5498904586

> <CNNaffinity>
5.6129126549

> <CNN_VS>
3.0864870548

> <CNNaffinity_variance>
0.0103004789

$$$$
/media/chris/experiments/cd1a-new-docking/inputs/ligands/6nux_ligand.pdb


 17 16  0  0  0  0  0  0  0  0999 V2000
  -42.6656   56.7078   64.6997 C   0  0  0  0  0  0  0  0  0  0  0  0
  -41.7855   57.8289   65.1745 C   0  0  0  0  0  0  0  0  0  0  0  0
  -42.1945   55.8449   63.7885 C   0  0  0  0  0  0  0  0  0  0  0  0
  -44.0693   56.5425   65.2428 C   0  0  0  0  0  0  0  0  0  0  0  0
  -45.0640   57.3616   64.4268 C   0  0  0  0  0  0  0  0  0  0  0  0
  -45.4469   60.1971   64.5761 C   0  0  0  0  0  0  0  0  0  0  0  0
  -46.3056   59.2782   65.3904 C   0  0  0  0  0  0  0  0  0  0  0  0
  -47.3635   59.8509   66.2849 C   0  0  0  0  0  0  0  0  0  0  0  0
  -46.1278   57.9504   65.3245 C   0  0  0  0  0  0  0  0  0  0  0  0
  -40.7921   56.0012   63.2469 C   0  0  0  0  0  0  0  0  0  0  0  0
  -40.8318   56.6257   61.8575 C   0  0  0  0  0  0  0  0  0  0  0  0
  -39.4898   57.2422   61.5270 C   0  0  0  0  0  0  0  0  0  0  0  0
  -38.2643   56.7883   62.2575 C   0  0  0  0  0  0  0  0  0  0  0  0
  -39.3896   58.1840   60.5773 C   0  0  0  0  0  0  0  0  0  0  0  0
  -37.9271   60.0835   60.8672 O   0  0  0  0  0  0  0  0  0  0  0  0
  -38.0571   58.8078   60.2300 C   0  0  0  0  0  0  0  0  0  0  0  0
  -37.0692   60.4738   60.6374 H   0  0  0  0  0  0  0  0  0  0  0  0
  6  7  1  0  0  0
 15 16  1  0  0  0
 15 17  1  0  0  0
  7  8  1  0  0  0
  7  9  2  0  0  0
  9  5  1  0  0  0
  5  4  1  0  0  0
  4  1  1  0  0  0
  1  2  1  0  0  0
  1  3  2  0  0  0
  3 10  1  0  0  0
 10 11  1  0  0  0
 11 12  1  0  0  0
 12 13  1  0  0  0
 12 14  2  0  0  0
 14 16  1  0  0  0
M  END
> <minimizedAffinity>
-6.69418

> <CNNscore>
0.5330218077

> <CNNaffinity>
5.5398335457

> <CNN_VS>
2.9528520107

> <CNNaffinity_variance>
0.2604268193

$$$$
