/media/chris/experiments/cd1a-new-docking/inputs/ligands/6nux_ligand.pdb


 17 16  0  0  0  0  0  0  0  0999 V2000
  -49.5443   58.6159   62.4348 C   0  0  0  0  0  0  0  0  0  0  0  0
  -49.6826   60.0434   61.9877 C   0  0  0  0  0  0  0  0  0  0  0  0
  -49.5556   58.3350   63.7454 C   0  0  0  0  0  0  0  0  0  0  0  0
  -49.3990   57.4986   61.4233 C   0  0  0  0  0  0  0  0  0  0  0  0
  -49.4341   58.0493   60.0015 C   0  0  0  0  0  0  0  0  0  0  0  0
  -46.9869   59.4373   59.4590 C   0  0  0  0  0  0  0  0  0  0  0  0
  -47.2094   58.0617   58.9087 C   0  0  0  0  0  0  0  0  0  0  0  0
  -46.1461   57.4175   58.0711 C   0  0  0  0  0  0  0  0  0  0  0  0
  -48.3546   57.4098   59.1589 C   0  0  0  0  0  0  0  0  0  0  0  0
  -49.7061   59.4453   64.7598 C   0  0  0  0  0  0  0  0  0  0  0  0
  -49.7443   58.8677   66.1694 C   0  0  0  0  0  0  0  0  0  0  0  0
  -48.3697   58.3738   66.5653 C   0  0  0  0  0  0  0  0  0  0  0  0
  -47.2085   59.3188   66.5502 C   0  0  0  0  0  0  0  0  0  0  0  0
  -48.1870   57.0989   66.9394 C   0  0  0  0  0  0  0  0  0  0  0  0
  -46.1360   56.0582   66.2034 O   0  0  0  0  0  0  0  0  0  0  0  0
  -46.8224   56.5885   67.3427 C   0  0  0  0  0  0  0  0  0  0  0  0
  -45.2627   55.7341   66.4740 H   0  0  0  0  0  0  0  0  0  0  0  0
  6  7  1  0  0  0
 15 16  1  0  0  0
 15 17  1  0  0  0
  7  8  1  0  0  0
  7  9  2  0  0  0
  9  5  1  0  0  0
  5  4  1  0  0  0
  4  1  1  0  0  0
  1  2  1  0  0  0
  1  3  2  0  0  0
  3 10  1  0  0  0
 10 11  1  0  0  0
 11 12  1  0  0  0
 12 13  1  0  0  0
 12 14  2  0  0  0
 14 16  1  0  0  0
M  END
> <minimizedAffinity>
-7.18696

> <CNNscore>
0.7734912038

> <CNNaffinity>
6.0721225739

> <CNN_VS>
4.6967334747

> <CNNaffinity_variance>
0.2740278840

$$$$
/media/chris/experiments/cd1a-new-docking/inputs/ligands/6nux_ligand.pdb


 17 16  0  0  0  0  0  0  0  0999 V2000
  -38.4087   57.5467   61.3913 C   0  0  0  0  0  0  0  0  0  0  0  0
  -39.4319   58.1967   60.5039 C   0  0  0  0  0  0  0  0  0  0  0  0
  -38.8034   56.6277   62.2836 C   0  0  0  0  0  0  0  0  0  0  0  0
  -36.9440   57.9149   61.2826 C   0  0  0  0  0  0  0  0  0  0  0  0
  -36.1250   57.1921   62.3469 C   0  0  0  0  0  0  0  0  0  0  0  0
  -34.5410   58.8698   64.0456 C   0  0  0  0  0  0  0  0  0  0  0  0
  -33.9076   58.1575   62.8897 C   0  0  0  0  0  0  0  0  0  0  0  0
  -32.4420   58.3298   62.6258 C   0  0  0  0  0  0  0  0  0  0  0  0
  -34.6465   57.3730   62.0911 C   0  0  0  0  0  0  0  0  0  0  0  0
  -40.2632   56.2516   62.3929 C   0  0  0  0  0  0  0  0  0  0  0  0
  -40.7377   56.3999   63.8334 C   0  0  0  0  0  0  0  0  0  0  0  0
  -40.8760   57.8650   64.1860 C   0  0  0  0  0  0  0  0  0  0  0  0
  -41.8072   58.7335   63.3983 C   0  0  0  0  0  0  0  0  0  0  0  0
  -40.1786   58.3879   65.2053 C   0  0  0  0  0  0  0  0  0  0  0  0
  -39.2112   60.5938   65.0343 O   0  0  0  0  0  0  0  0  0  0  0  0
  -40.3072   59.8479   65.5753 C   0  0  0  0  0  0  0  0  0  0  0  0
  -39.3043   61.5281   65.2779 H   0  0  0  0  0  0  0  0  0  0  0  0
  6  7  1  0  0  0
 15 16  1  0  0  0
 15 17  1  0  0  0
  7  8  1  0  0  0
  7  9  2  0  0  0
  9  5  1  0  0  0
  5  4  1  0  0  0
  4  1  1  0  0  0
  1  2  1  0  0  0
  1  3  2  0  0  0
  3 10  1  0  0  0
 10 11  1  0  0  0
 11 12  1  0  0  0
 12 13  1  0  0  0
 12 14  2  0  0  0
 14 16  1  0  0  0
M  END
> <minimizedAffinity>
-6.77253

> <CNNscore>
0.6688670516

> <CNNaffinity>
5.6121845245

> <CNN_VS>
3.7538053989

> <CNNaffinity_variance>
0.0256141983

$$$$
/media/chris/experiments/cd1a-new-docking/inputs/ligands/6nux_ligand.pdb


 17 16  0  0  0  0  0  0  0  0999 V2000
  -38.2206   57.5032   62.1775 C   0  0  0  0  0  0  0  0  0  0  0  0
  -38.5114   57.5079   63.6514 C   0  0  0  0  0  0  0  0  0  0  0  0
  -39.2368   57.5943   61.3082 C   0  0  0  0  0  0  0  0  0  0  0  0
  -36.7977   57.4028   61.6696 C   0  0  0  0  0  0  0  0  0  0  0  0
  -35.8299   57.1493   62.8208 C   0  0  0  0  0  0  0  0  0  0  0  0
  -33.2476   56.5007   61.7624 C   0  0  0  0  0  0  0  0  0  0  0  0
  -33.5120   57.8675   62.3161 C   0  0  0  0  0  0  0  0  0  0  0  0
  -32.4175   58.8919   62.3156 C   0  0  0  0  0  0  0  0  0  0  0  0
  -34.7190   58.1739   62.8143 C   0  0  0  0  0  0  0  0  0  0  0  0
  -40.6588   57.7006   61.8091 C   0  0  0  0  0  0  0  0  0  0  0  0
  -41.3922   56.3824   61.5929 C   0  0  0  0  0  0  0  0  0  0  0  0
  -41.8225   55.8037   62.9233 C   0  0  0  0  0  0  0  0  0  0  0  0
  -41.4055   54.4156   63.2988 C   0  0  0  0  0  0  0  0  0  0  0  0
  -42.5655   56.5293   63.7720 C   0  0  0  0  0  0  0  0  0  0  0  0
  -44.4214   56.0794   65.2500 O   0  0  0  0  0  0  0  0  0  0  0  0
  -43.0009   55.9700   65.1072 C   0  0  0  0  0  0  0  0  0  0  0  0
  -44.6889   55.7178   66.1094 H   0  0  0  0  0  0  0  0  0  0  0  0
  6  7  1  0  0  0
 15 16  1  0  0  0
 15 17  1  0  0  0
  7  8  1  0  0  0
  7  9  2  0  0  0
  9  5  1  0  0  0
  5  4  1  0  0  0
  4  1  1  0  0  0
  1  2  1  0  0  0
  1  3  2  0  0  0
  3 10  1  0  0  0
 10 11  1  0  0  0
 11 12  1  0  0  0
 12 13  1  0  0  0
 12 14  2  0  0  0
 14 16  1  0  0  0
M  END
> <minimizedAffinity>
-6.90383

> <CNNscore>
0.6571587920

> <CNNaffinity>
5.6983819008

> <CNN_VS>
3.7447416782

> <CNNaffinity_variance>
0.0086266045

$$$$
/media/chris/experiments/cd1a-new-docking/inputs/ligands/6nux_ligand.pdb


 17 16  0  0  0  0  0  0  0  0999 V2000
  -42.3660   56.4559   63.3465 C   0  0  0  0  0  0  0  0  0  0  0  0
  -43.2571   57.4508   62.6588 C   0  0  0  0  0  0  0  0  0  0  0  0
  -41.1458   56.2134   62.8474 C   0  0  0  0  0  0  0  0  0  0  0  0
  -42.8298   55.7338   64.5940 C   0  0  0  0  0  0  0  0  0  0  0  0
  -43.8224   56.5886   65.3751 C   0  0  0  0  0  0  0  0  0  0  0  0
  -44.5400   59.3422   65.7096 C   0  0  0  0  0  0  0  0  0  0  0  0
  -43.4389   58.7465   66.5326 C   0  0  0  0  0  0  0  0  0  0  0  0
  -42.7136   59.5997   67.5292 C   0  0  0  0  0  0  0  0  0  0  0  0
  -43.0989   57.4583   66.3771 C   0  0  0  0  0  0  0  0  0  0  0  0
  -40.6749   56.9353   61.6058 C   0  0  0  0  0  0  0  0  0  0  0  0
  -39.9354   58.2116   61.9885 C   0  0  0  0  0  0  0  0  0  0  0  0
  -38.4926   58.1299   61.5394 C   0  0  0  0  0  0  0  0  0  0  0  0
  -38.0948   58.6982   60.2126 C   0  0  0  0  0  0  0  0  0  0  0  0
  -37.5667   57.5618   62.3261 C   0  0  0  0  0  0  0  0  0  0  0  0
  -35.3813   58.5848   62.4195 O   0  0  0  0  0  0  0  0  0  0  0  0
  -36.1199   57.4752   61.8966 C   0  0  0  0  0  0  0  0  0  0  0  0
  -34.4555   58.5187   62.1378 H   0  0  0  0  0  0  0  0  0  0  0  0
  6  7  1  0  0  0
 15 16  1  0  0  0
 15 17  1  0  0  0
  7  8  1  0  0  0
  7  9  2  0  0  0
  9  5  1  0  0  0
  5  4  1  0  0  0
  4  1  1  0  0  0
  1  2  1  0  0  0
  1  3  2  0  0  0
  3 10  1  0  0  0
 10 11  1  0  0  0
 11 12  1  0  0  0
 12 13  1  0  0  0
 12 14  2  0  0  0
 14 16  1  0  0  0
M  END
> <minimizedAffinity>
-6.47087

> <CNNscore>
0.5408478379

> <CNNaffinity>
5.5567536354

> <CNN_VS>
3.0053582191

> <CNNaffinity_variance>
0.0115303379

$$$$
/media/chris/experiments/cd1a-new-docking/inputs/ligands/6nux_ligand.pdb


 17 16  0  0  0  0  0  0  0  0999 V2000
  -44.4025   57.7044   62.9736 C   0  0  0  0  0  0  0  0  0  0  0  0
  -44.2554   57.1861   64.3760 C   0  0  0  0  0  0  0  0  0  0  0  0
  -43.3209   57.7798   62.1855 C   0  0  0  0  0  0  0  0  0  0  0  0
  -45.7547   58.1341   62.4450 C   0  0  0  0  0  0  0  0  0  0  0  0
  -45.7867   58.0625   60.9219 C   0  0  0  0  0  0  0  0  0  0  0  0
  -46.3452   57.8240   58.1217 C   0  0  0  0  0  0  0  0  0  0  0  0
  -47.3928   57.4653   59.1309 C   0  0  0  0  0  0  0  0  0  0  0  0
  -48.7347   56.9840   58.6674 C   0  0  0  0  0  0  0  0  0  0  0  0
  -47.1356   57.5778   60.4425 C   0  0  0  0  0  0  0  0  0  0  0  0
  -41.9694   57.3470   62.7055 C   0  0  0  0  0  0  0  0  0  0  0  0
  -41.1990   56.6095   61.6169 C   0  0  0  0  0  0  0  0  0  0  0  0
  -39.7916   57.1562   61.5161 C   0  0  0  0  0  0  0  0  0  0  0  0
  -38.7247   56.6326   62.4269 C   0  0  0  0  0  0  0  0  0  0  0  0
  -39.4913   58.0982   60.6099 C   0  0  0  0  0  0  0  0  0  0  0  0
  -38.1060   60.0757   60.6516 O   0  0  0  0  0  0  0  0  0  0  0  0
  -38.0901   58.6529   60.4912 C   0  0  0  0  0  0  0  0  0  0  0  0
  -37.2026   60.4201   60.5736 H   0  0  0  0  0  0  0  0  0  0  0  0
  6  7  1  0  0  0
 15 16  1  0  0  0
 15 17  1  0  0  0
  7  8  1  0  0  0
  7  9  2  0  0  0
  9  5  1  0  0  0
  5  4  1  0  0  0
  4  1  1  0  0  0
  1  2  1  0  0  0
  1  3  2  0  0  0
  3 10  1  0  0  0
 10 11  1  0  0  0
 11 12  1  0  0  0
 12 13  1  0  0  0
 12 14  2  0  0  0
 14 16  1  0  0  0
M  END
> <minimizedAffinity>
-7.27717

> <CNNscore>
0.5096996427

> <CNNaffinity>
5.7443618774

> <CNN_VS>
2.9278991222

> <CNNaffinity_variance>
0.4397013783

$$$$
/media/chris/experiments/cd1a-new-docking/inputs/ligands/6nux_ligand.pdb


 17 16  0  0  0  0  0  0  0  0999 V2000
  -37.4738   57.8639   63.9944 C   0  0  0  0  0  0  0  0  0  0  0  0
  -38.6937   57.7258   64.8602 C   0  0  0  0  0  0  0  0  0  0  0  0
  -37.5052   57.3983   62.7378 C   0  0  0  0  0  0  0  0  0  0  0  0
  -36.2192   58.5255   64.5244 C   0  0  0  0  0  0  0  0  0  0  0  0
  -34.9949   57.6577   64.2525 C   0  0  0  0  0  0  0  0  0  0  0  0
  -33.5637   57.0079   61.8569 C   0  0  0  0  0  0  0  0  0  0  0  0
  -33.1675   58.2029   62.6691 C   0  0  0  0  0  0  0  0  0  0  0  0
  -32.0172   59.0542   62.2228 C   0  0  0  0  0  0  0  0  0  0  0  0
  -33.8339   58.5088   63.7922 C   0  0  0  0  0  0  0  0  0  0  0  0
  -38.7564   56.7421   62.2011 C   0  0  0  0  0  0  0  0  0  0  0  0
  -39.3403   57.5737   61.0654 C   0  0  0  0  0  0  0  0  0  0  0  0
  -40.3134   58.5934   61.6162 C   0  0  0  0  0  0  0  0  0  0  0  0
  -40.0734   60.0522   61.3791 C   0  0  0  0  0  0  0  0  0  0  0  0
  -41.3941   58.1989   62.3055 C   0  0  0  0  0  0  0  0  0  0  0  0
  -43.0617   58.6531   63.9920 O   0  0  0  0  0  0  0  0  0  0  0  0
  -42.3797   59.2026   62.8592 C   0  0  0  0  0  0  0  0  0  0  0  0
  -43.6907   59.3052   64.3384 H   0  0  0  0  0  0  0  0  0  0  0  0
  6  7  1  0  0  0
 15 16  1  0  0  0
 15 17  1  0  0  0
  7  8  1  0  0  0
  7  9  2  0  0  0
  9  5  1  0  0  0
  5  4  1  0  0  0
  4  1  1  0  0  0
  1  2  1  0  0  0
  1  3  2  0  0  0
  3 10  1  0  0  0
 10 11  1  0  0  0
 11 12  1  0  0  0
 12 13  1  0  0  0
 12 14  2  0  0  0
 14 16  1  0  0  0
M  END
> <minimizedAffinity>
-6.42476

> <CNNscore>
0.5049991012

> <CNNaffinity>
5.5744514465

> <CNN_VS>
2.8150930405

> <CNNaffinity_variance>
0.0640175641

$$$$
/media/chris/experiments/cd1a-new-docking/inputs/ligands/6nux_ligand.pdb


 17 16  0  0  0  0  0  0  0  0999 V2000
  -39.3710   57.2482   61.5279 C   0  0  0  0  0  0  0  0  0  0  0  0
  -39.3098   58.3121   60.4690 C   0  0  0  0  0  0  0  0  0  0  0  0
  -38.2380   56.8485   62.1223 C   0  0  0  0  0  0  0  0  0  0  0  0
  -40.6942   56.6318   61.9305 C   0  0  0  0  0  0  0  0  0  0  0  0
  -40.7041   56.2986   63.4187 C   0  0  0  0  0  0  0  0  0  0  0  0
  -39.4025   58.1887   65.1342 C   0  0  0  0  0  0  0  0  0  0  0  0
  -40.8933   58.2091   64.9864 C   0  0  0  0  0  0  0  0  0  0  0  0
  -41.6994   59.2217   65.7429 C   0  0  0  0  0  0  0  0  0  0  0  0
  -41.5061   57.3244   64.1859 C   0  0  0  0  0  0  0  0  0  0  0  0
  -36.9149   57.4641   61.7290 C   0  0  0  0  0  0  0  0  0  0  0  0
  -36.4317   58.4127   62.8193 C   0  0  0  0  0  0  0  0  0  0  0  0
  -34.9663   58.1684   63.1078 C   0  0  0  0  0  0  0  0  0  0  0  0
  -34.4453   58.3397   64.5009 C   0  0  0  0  0  0  0  0  0  0  0  0
  -34.1341   57.7895   62.1266 C   0  0  0  0  0  0  0  0  0  0  0  0
  -31.8956   58.6923   62.0550 O   0  0  0  0  0  0  0  0  0  0  0  0
  -32.6685   57.5363   62.3965 C   0  0  0  0  0  0  0  0  0  0  0  0
  -30.9579   58.5184   62.2321 H   0  0  0  0  0  0  0  0  0  0  0  0
  6  7  1  0  0  0
 15 16  1  0  0  0
 15 17  1  0  0  0
  7  8  1  0  0  0
  7  9  2  0  0  0
  9  5  1  0  0  0
  5  4  1  0  0  0
  4  1  1  0  0  0
  1  2  1  0  0  0
  1  3  2  0  0  0
  3 10  1  0  0  0
 10 11  1  0  0  0
 11 12  1  0  0  0
 12 13  1  0  0  0
 12 14  2  0  0  0
 14 16  1  0  0  0
M  END
> <minimizedAffinity>
-6.56818

> <CNNscore>
0.4916802049

> <CNNaffinity>
5.6185178757

> <CNN_VS>
2.7625141144

> <CNNaffinity_variance>
0.0255414601

$$$$
/media/chris/experiments/cd1a-new-docking/inputs/ligands/6nux_ligand.pdb


 17 16  0  0  0  0  0  0  0  0999 V2000
  -38.6707   57.6385   61.3612 C   0  0  0  0  0  0  0  0  0  0  0  0
  -39.7636   58.4036   60.6705 C   0  0  0  0  0  0  0  0  0  0  0  0
  -38.9933   56.6162   62.1659 C   0  0  0  0  0  0  0  0  0  0  0  0
  -37.2169   58.0068   61.1525 C   0  0  0  0  0  0  0  0  0  0  0  0
  -36.3067   57.0992   61.9734 C   0  0  0  0  0  0  0  0  0  0  0  0
  -36.6420   57.2712   64.8137 C   0  0  0  0  0  0  0  0  0  0  0  0
  -35.5161   57.9981   64.1438 C   0  0  0  0  0  0  0  0  0  0  0  0
  -34.5686   58.8175   64.9673 C   0  0  0  0  0  0  0  0  0  0  0  0
  -35.3574   57.9216   62.8141 C   0  0  0  0  0  0  0  0  0  0  0  0
  -40.4423   56.2400   62.3737 C   0  0  0  0  0  0  0  0  0  0  0  0
  -40.8072   56.3488   63.8493 C   0  0  0  0  0  0  0  0  0  0  0  0
  -42.2805   56.6606   63.9979 C   0  0  0  0  0  0  0  0  0  0  0  0
  -42.9849   57.4427   62.9331 C   0  0  0  0  0  0  0  0  0  0  0  0
  -42.9613   56.2323   65.0711 C   0  0  0  0  0  0  0  0  0  0  0  0
  -44.7168   56.9008   66.5886 O   0  0  0  0  0  0  0  0  0  0  0  0
  -44.4343   56.5299   65.2347 C   0  0  0  0  0  0  0  0  0  0  0  0
  -45.6638   57.0892   66.6814 H   0  0  0  0  0  0  0  0  0  0  0  0
  6  7  1  0  0  0
 15 16  1  0  0  0
 15 17  1  0  0  0
  7  8  1  0  0  0
  7  9  2  0  0  0
  9  5  1  0  0  0
  5  4  1  0  0  0
  4  1  1  0  0  0
  1  2  1  0  0  0
  1  3  2  0  0  0
  3 10  1  0  0  0
 10 11  1  0  0  0
 11 12  1  0  0  0
 12 13  1  0  0  0
 12 14  2  0  0  0
 14 16  1  0  0  0
M  END
> <minimizedAffinity>
-6.59818

> <CNNscore>
0.4505363703

> <CNNaffinity>
5.5554404259

> <CNN_VS>
2.5029280186

> <CNNaffinity_variance>
0.0174018834

$$$$
/media/chris/experiments/cd1a-new-docking/inputs/ligands/6nux_ligand.pdb


 17 16  0  0  0  0  0  0  0  0999 V2000
  -38.5708   57.6743   61.3093 C   0  0  0  0  0  0  0  0  0  0  0  0
  -37.6660   58.6520   60.6147 C   0  0  0  0  0  0  0  0  0  0  0  0
  -38.0810   56.9185   62.3020 C   0  0  0  0  0  0  0  0  0  0  0  0
  -40.0235   57.5409   60.9035 C   0  0  0  0  0  0  0  0  0  0  0  0
  -40.9392   58.1227   61.9753 C   0  0  0  0  0  0  0  0  0  0  0  0
  -40.7341   57.5705   64.7793 C   0  0  0  0  0  0  0  0  0  0  0  0
  -41.6743   56.7779   63.9234 C   0  0  0  0  0  0  0  0  0  0  0  0
  -42.5043   55.6934   64.5416 C   0  0  0  0  0  0  0  0  0  0  0  0
  -41.7713   57.0323   62.6100 C   0  0  0  0  0  0  0  0  0  0  0  0
  -36.6334   57.0512   62.7156 C   0  0  0  0  0  0  0  0  0  0  0  0
  -36.5323   57.2273   64.2259 C   0  0  0  0  0  0  0  0  0  0  0  0
  -36.3747   58.6929   64.5681 C   0  0  0  0  0  0  0  0  0  0  0  0
  -35.0072   59.3004   64.6197 C   0  0  0  0  0  0  0  0  0  0  0  0
  -37.4517   59.4532   64.8147 C   0  0  0  0  0  0  0  0  0  0  0  0
  -37.8147   61.1724   66.4712 O   0  0  0  0  0  0  0  0  0  0  0  0
  -37.3144   60.9200   65.1535 C   0  0  0  0  0  0  0  0  0  0  0  0
  -37.7215   62.1156   66.6774 H   0  0  0  0  0  0  0  0  0  0  0  0
  6  7  1  0  0  0
 15 16  1  0  0  0
 15 17  1  0  0  0
  7  8  1  0  0  0
  7  9  2  0  0  0
  9  5  1  0  0  0
  5  4  1  0  0  0
  4  1  1  0  0  0
  1  2  1  0  0  0
  1  3  2  0  0  0
  3 10  1  0  0  0
 10 11  1  0  0  0
 11 12  1  0  0  0
 12 13  1  0  0  0
 12 14  2  0  0  0
 14 16  1  0  0  0
M  END
> <minimizedAffinity>
-6.52523

> <CNNscore>
0.4420587420

> <CNNaffinity>
5.4138612747

> <CNN_VS>
2.3932447433

> <CNNaffinity_variance>
0.0208781268

$$$$
