/media/chris/experiments/cd1a-new-docking/inputs/ligands/6nux_ligand.pdb


 17 16  0  0  0  0  0  0  0  0999 V2000
  -38.9181   57.7984   61.3363 C   0  0  0  0  0  0  0  0  0  0  0  0
  -38.0392   58.6347   60.4503 C   0  0  0  0  0  0  0  0  0  0  0  0
  -38.3543   56.9920   62.2465 C   0  0  0  0  0  0  0  0  0  0  0  0
  -40.4259   57.8631   61.2141 C   0  0  0  0  0  0  0  0  0  0  0  0
  -41.0581   56.5364   61.6221 C   0  0  0  0  0  0  0  0  0  0  0  0
  -41.5082   54.4296   63.5111 C   0  0  0  0  0  0  0  0  0  0  0  0
  -42.2042   55.7464   63.6730 C   0  0  0  0  0  0  0  0  0  0  0  0
  -43.1386   55.9541   64.8267 C   0  0  0  0  0  0  0  0  0  0  0  0
  -41.9974   56.7342   62.7894 C   0  0  0  0  0  0  0  0  0  0  0  0
  -36.8499   56.9274   62.3773 C   0  0  0  0  0  0  0  0  0  0  0  0
  -36.4265   57.3371   63.7827 C   0  0  0  0  0  0  0  0  0  0  0  0
  -35.0461   57.9565   63.7490 C   0  0  0  0  0  0  0  0  0  0  0  0
  -34.3683   58.3292   65.0309 C   0  0  0  0  0  0  0  0  0  0  0  0
  -34.4222   58.1637   62.5800 C   0  0  0  0  0  0  0  0  0  0  0  0
  -33.1357   60.2048   62.4787 O   0  0  0  0  0  0  0  0  0  0  0  0
  -33.0414   58.7768   62.5267 C   0  0  0  0  0  0  0  0  0  0  0  0
  -32.2447   60.5867   62.4448 H   0  0  0  0  0  0  0  0  0  0  0  0
  6  7  1  0  0  0
 15 16  1  0  0  0
 15 17  1  0  0  0
  7  8  1  0  0  0
  7  9  2  0  0  0
  9  5  1  0  0  0
  5  4  1  0  0  0
  4  1  1  0  0  0
  1  2  1  0  0  0
  1  3  2  0  0  0
  3 10  1  0  0  0
 10 11  1  0  0  0
 11 12  1  0  0  0
 12 13  1  0  0  0
 12 14  2  0  0  0
 14 16  1  0  0  0
M  END
> <minimizedAffinity>
-6.93016

> <CNNscore>
0.8509697914

> <CNNaffinity>
5.9443445206

> <CNN_VS>
5.0584578514

> <CNNaffinity_variance>
0.0263513215

$$$$
/media/chris/experiments/cd1a-new-docking/inputs/ligands/6nux_ligand.pdb


 17 16  0  0  0  0  0  0  0  0999 V2000
  -47.6860   59.5771   61.6055 C   0  0  0  0  0  0  0  0  0  0  0  0
  -48.7170   60.5866   61.1872 C   0  0  0  0  0  0  0  0  0  0  0  0
  -47.8283   58.9411   62.7768 C   0  0  0  0  0  0  0  0  0  0  0  0
  -46.4984   59.2702   60.7178 C   0  0  0  0  0  0  0  0  0  0  0  0
  -46.9374   59.1056   59.2664 C   0  0  0  0  0  0  0  0  0  0  0  0
  -49.0207   57.1414   59.1596 C   0  0  0  0  0  0  0  0  0  0  0  0
  -47.6294   56.7863   58.7319 C   0  0  0  0  0  0  0  0  0  0  0  0
  -47.3335   55.3977   58.2506 C   0  0  0  0  0  0  0  0  0  0  0  0
  -46.6513   57.7026   58.7825 C   0  0  0  0  0  0  0  0  0  0  0  0
  -49.0146   59.2389   63.6646 C   0  0  0  0  0  0  0  0  0  0  0  0
  -48.5581   59.4265   65.1063 C   0  0  0  0  0  0  0  0  0  0  0  0
  -48.8078   58.1615   65.8986 C   0  0  0  0  0  0  0  0  0  0  0  0
  -50.2122   57.7396   66.2004 C   0  0  0  0  0  0  0  0  0  0  0  0
  -47.7803   57.4109   66.3227 C   0  0  0  0  0  0  0  0  0  0  0  0
  -47.5704   55.0056   66.3588 O   0  0  0  0  0  0  0  0  0  0  0  0
  -48.0101   56.1418   67.1112 C   0  0  0  0  0  0  0  0  0  0  0  0
  -47.7227   54.1980   66.8741 H   0  0  0  0  0  0  0  0  0  0  0  0
  6  7  1  0  0  0
 15 16  1  0  0  0
 15 17  1  0  0  0
  7  8  1  0  0  0
  7  9  2  0  0  0
  9  5  1  0  0  0
  5  4  1  0  0  0
  4  1  1  0  0  0
  1  2  1  0  0  0
  1  3  2  0  0  0
  3 10  1  0  0  0
 10 11  1  0  0  0
 11 12  1  0  0  0
 12 13  1  0  0  0
 12 14  2  0  0  0
 14 16  1  0  0  0
M  END
> <minimizedAffinity>
-6.67444

> <CNNscore>
0.7200775146

> <CNNaffinity>
6.0663957596

> <CNN_VS>
4.3682751656

> <CNNaffinity_variance>
0.1738847941

$$$$
/media/chris/experiments/cd1a-new-docking/inputs/ligands/6nux_ligand.pdb


 17 16  0  0  0  0  0  0  0  0999 V2000
  -43.8591   57.2013   64.1587 C   0  0  0  0  0  0  0  0  0  0  0  0
  -43.4298   56.2319   65.2230 C   0  0  0  0  0  0  0  0  0  0  0  0
  -43.0843   57.3753   63.0788 C   0  0  0  0  0  0  0  0  0  0  0  0
  -45.1543   57.9742   64.2925 C   0  0  0  0  0  0  0  0  0  0  0  0
  -46.1516   57.2109   65.1579 C   0  0  0  0  0  0  0  0  0  0  0  0
  -48.2297   56.5084   67.0012 C   0  0  0  0  0  0  0  0  0  0  0  0
  -48.5023   57.4822   65.8958 C   0  0  0  0  0  0  0  0  0  0  0  0
  -49.8683   58.0843   65.7583 C   0  0  0  0  0  0  0  0  0  0  0  0
  -47.5325   57.8118   65.0298 C   0  0  0  0  0  0  0  0  0  0  0  0
  -41.7933   56.6025   62.9367 C   0  0  0  0  0  0  0  0  0  0  0  0
  -41.2864   56.6853   61.5020 C   0  0  0  0  0  0  0  0  0  0  0  0
  -39.8459   57.1492   61.4865 C   0  0  0  0  0  0  0  0  0  0  0  0
  -38.8648   56.5569   62.4499 C   0  0  0  0  0  0  0  0  0  0  0  0
  -39.4405   58.0790   60.6090 C   0  0  0  0  0  0  0  0  0  0  0  0
  -37.9542   59.9638   60.3452 O   0  0  0  0  0  0  0  0  0  0  0  0
  -38.0049   58.5514   60.5753 C   0  0  0  0  0  0  0  0  0  0  0  0
  -37.0293   60.2552   60.3256 H   0  0  0  0  0  0  0  0  0  0  0  0
  6  7  1  0  0  0
 15 16  1  0  0  0
 15 17  1  0  0  0
  7  8  1  0  0  0
  7  9  2  0  0  0
  9  5  1  0  0  0
  5  4  1  0  0  0
  4  1  1  0  0  0
  1  2  1  0  0  0
  1  3  2  0  0  0
  3 10  1  0  0  0
 10 11  1  0  0  0
 11 12  1  0  0  0
 12 13  1  0  0  0
 12 14  2  0  0  0
 14 16  1  0  0  0
M  END
> <minimizedAffinity>
-6.79973

> <CNNscore>
0.6698434949

> <CNNaffinity>
5.9446282387

> <CNN_VS>
3.9819705486

> <CNNaffinity_variance>
0.6220112443

$$$$
/media/chris/experiments/cd1a-new-docking/inputs/ligands/6nux_ligand.pdb


 17 16  0  0  0  0  0  0  0  0999 V2000
  -38.2559   57.4924   62.1681 C   0  0  0  0  0  0  0  0  0  0  0  0
  -38.5516   57.5190   63.6408 C   0  0  0  0  0  0  0  0  0  0  0  0
  -39.2693   57.5699   61.2942 C   0  0  0  0  0  0  0  0  0  0  0  0
  -36.8313   57.3853   61.6665 C   0  0  0  0  0  0  0  0  0  0  0  0
  -35.8691   57.1339   62.8229 C   0  0  0  0  0  0  0  0  0  0  0  0
  -33.2676   56.5439   61.7771 C   0  0  0  0  0  0  0  0  0  0  0  0
  -33.5600   57.8985   62.3463 C   0  0  0  0  0  0  0  0  0  0  0  0
  -32.4835   58.9417   62.3679 C   0  0  0  0  0  0  0  0  0  0  0  0
  -34.7760   58.1776   62.8387 C   0  0  0  0  0  0  0  0  0  0  0  0
  -40.6930   57.6829   61.7887 C   0  0  0  0  0  0  0  0  0  0  0  0
  -41.4245   56.3608   61.5910 C   0  0  0  0  0  0  0  0  0  0  0  0
  -41.8487   55.7971   62.9299 C   0  0  0  0  0  0  0  0  0  0  0  0
  -41.4552   54.4026   63.3066 C   0  0  0  0  0  0  0  0  0  0  0  0
  -42.5653   56.5417   63.7849 C   0  0  0  0  0  0  0  0  0  0  0  0
  -44.4205   56.0401   65.2470 O   0  0  0  0  0  0  0  0  0  0  0  0
  -42.9941   55.9976   65.1285 C   0  0  0  0  0  0  0  0  0  0  0  0
  -44.6836   55.6890   66.1120 H   0  0  0  0  0  0  0  0  0  0  0  0
  6  7  1  0  0  0
 15 16  1  0  0  0
 15 17  1  0  0  0
  7  8  1  0  0  0
  7  9  2  0  0  0
  9  5  1  0  0  0
  5  4  1  0  0  0
  4  1  1  0  0  0
  1  2  1  0  0  0
  1  3  2  0  0  0
  3 10  1  0  0  0
 10 11  1  0  0  0
 11 12  1  0  0  0
 12 13  1  0  0  0
 12 14  2  0  0  0
 14 16  1  0  0  0
M  END
> <minimizedAffinity>
-6.90253

> <CNNscore>
0.6528596878

> <CNNaffinity>
5.7008657455

> <CNN_VS>
3.7218654156

> <CNNaffinity_variance>
0.0083927335

$$$$
/media/chris/experiments/cd1a-new-docking/inputs/ligands/6nux_ligand.pdb


 17 16  0  0  0  0  0  0  0  0999 V2000
  -41.9534   55.7673   62.8657 C   0  0  0  0  0  0  0  0  0  0  0  0
  -41.5199   54.4084   63.3371 C   0  0  0  0  0  0  0  0  0  0  0  0
  -42.6538   56.5559   63.6928 C   0  0  0  0  0  0  0  0  0  0  0  0
  -41.6028   56.2523   61.4748 C   0  0  0  0  0  0  0  0  0  0  0  0
  -40.6650   57.4533   61.5421 C   0  0  0  0  0  0  0  0  0  0  0  0
  -38.2311   58.5101   60.4612 C   0  0  0  0  0  0  0  0  0  0  0  0
  -38.1890   57.5467   61.6077 C   0  0  0  0  0  0  0  0  0  0  0  0
  -36.8670   57.1372   62.1839 C   0  0  0  0  0  0  0  0  0  0  0  0
  -39.3263   57.0483   62.1149 C   0  0  0  0  0  0  0  0  0  0  0  0
  -43.0017   56.0798   65.0844 C   0  0  0  0  0  0  0  0  0  0  0  0
  -44.1712   56.8846   65.6382 C   0  0  0  0  0  0  0  0  0  0  0  0
  -43.7478   58.3176   65.8780 C   0  0  0  0  0  0  0  0  0  0  0  0
  -44.5022   59.4338   65.2249 C   0  0  0  0  0  0  0  0  0  0  0  0
  -42.7086   58.5945   66.6794 C   0  0  0  0  0  0  0  0  0  0  0  0
  -41.0496   60.2945   66.2449 O   0  0  0  0  0  0  0  0  0  0  0  0
  -42.2740   60.0196   66.9347 C   0  0  0  0  0  0  0  0  0  0  0  0
  -40.7808   61.2106   66.4159 H   0  0  0  0  0  0  0  0  0  0  0  0
  6  7  1  0  0  0
 15 16  1  0  0  0
 15 17  1  0  0  0
  7  8  1  0  0  0
  7  9  2  0  0  0
  9  5  1  0  0  0
  5  4  1  0  0  0
  4  1  1  0  0  0
  1  2  1  0  0  0
  1  3  2  0  0  0
  3 10  1  0  0  0
 10 11  1  0  0  0
 11 12  1  0  0  0
 12 13  1  0  0  0
 12 14  2  0  0  0
 14 16  1  0  0  0
M  END
> <minimizedAffinity>
-6.65405

> <CNNscore>
0.6346013546

> <CNNaffinity>
5.5150084496

> <CNN_VS>
3.4998319149

> <CNNaffinity_variance>
0.0164278485

$$$$
/media/chris/experiments/cd1a-new-docking/inputs/ligands/6nux_ligand.pdb


 17 16  0  0  0  0  0  0  0  0999 V2000
  -50.0042   58.2930   61.3035 C   0  0  0  0  0  0  0  0  0  0  0  0
  -50.0987   59.7127   60.8213 C   0  0  0  0  0  0  0  0  0  0  0  0
  -49.6936   58.0552   62.5856 C   0  0  0  0  0  0  0  0  0  0  0  0
  -50.2610   57.1365   60.3606 C   0  0  0  0  0  0  0  0  0  0  0  0
  -49.0341   56.2355   60.2645 C   0  0  0  0  0  0  0  0  0  0  0  0
  -46.5489   57.6116   60.6382 C   0  0  0  0  0  0  0  0  0  0  0  0
  -47.0182   57.2680   59.2576 C   0  0  0  0  0  0  0  0  0  0  0  0
  -46.1819   57.6504   58.0736 C   0  0  0  0  0  0  0  0  0  0  0  0
  -48.1821   56.6257   59.0788 C   0  0  0  0  0  0  0  0  0  0  0  0
  -49.4418   59.2055   63.5331 C   0  0  0  0  0  0  0  0  0  0  0  0
  -48.0718   59.0600   64.1841 C   0  0  0  0  0  0  0  0  0  0  0  0
  -48.2088   58.4031   65.5406 C   0  0  0  0  0  0  0  0  0  0  0  0
  -48.9070   59.1277   66.6491 C   0  0  0  0  0  0  0  0  0  0  0  0
  -47.7186   57.1728   65.7529 C   0  0  0  0  0  0  0  0  0  0  0  0
  -46.5808   55.9897   67.5239 O   0  0  0  0  0  0  0  0  0  0  0  0
  -47.8501   56.4987   67.0995 C   0  0  0  0  0  0  0  0  0  0  0  0
  -46.6774   55.5598   68.3881 H   0  0  0  0  0  0  0  0  0  0  0  0
  6  7  1  0  0  0
 15 16  1  0  0  0
 15 17  1  0  0  0
  7  8  1  0  0  0
  7  9  2  0  0  0
  9  5  1  0  0  0
  5  4  1  0  0  0
  4  1  1  0  0  0
  1  2  1  0  0  0
  1  3  2  0  0  0
  3 10  1  0  0  0
 10 11  1  0  0  0
 11 12  1  0  0  0
 12 13  1  0  0  0
 12 14  2  0  0  0
 14 16  1  0  0  0
M  END
> <minimizedAffinity>
-6.94131

> <CNNscore>
0.6220924854

> <CNNaffinity>
5.9056930542

> <CNN_VS>
3.6738872528

> <CNNaffinity_variance>
0.1037289500

$$$$
/media/chris/experiments/cd1a-new-docking/inputs/ligands/6nux_ligand.pdb


 17 16  0  0  0  0  0  0  0  0999 V2000
  -38.3332   57.5593   61.4203 C   0  0  0  0  0  0  0  0  0  0  0  0
  -39.3664   58.3080   60.6273 C   0  0  0  0  0  0  0  0  0  0  0  0
  -38.7284   56.6174   62.2883 C   0  0  0  0  0  0  0  0  0  0  0  0
  -36.8585   57.8543   61.2441 C   0  0  0  0  0  0  0  0  0  0  0  0
  -36.0528   57.2960   62.4126 C   0  0  0  0  0  0  0  0  0  0  0  0
  -33.3961   56.4723   61.7250 C   0  0  0  0  0  0  0  0  0  0  0  0
  -33.6254   57.7971   62.3860 C   0  0  0  0  0  0  0  0  0  0  0  0
  -32.4575   58.6872   62.6877 C   0  0  0  0  0  0  0  0  0  0  0  0
  -34.8676   58.1850   62.7112 C   0  0  0  0  0  0  0  0  0  0  0  0
  -40.1985   56.3143   62.4645 C   0  0  0  0  0  0  0  0  0  0  0  0
  -40.6000   56.4893   63.9240 C   0  0  0  0  0  0  0  0  0  0  0  0
  -40.7687   57.9590   64.2433 C   0  0  0  0  0  0  0  0  0  0  0  0
  -41.7950   58.7650   63.5094 C   0  0  0  0  0  0  0  0  0  0  0  0
  -40.0129   58.5411   65.1860 C   0  0  0  0  0  0  0  0  0  0  0  0
  -39.0951   60.4396   66.3627 O   0  0  0  0  0  0  0  0  0  0  0  0
  -40.1703   60.0066   65.5219 C   0  0  0  0  0  0  0  0  0  0  0  0
  -39.2066   61.3802   66.5715 H   0  0  0  0  0  0  0  0  0  0  0  0
  6  7  1  0  0  0
 15 16  1  0  0  0
 15 17  1  0  0  0
  7  8  1  0  0  0
  7  9  2  0  0  0
  9  5  1  0  0  0
  5  4  1  0  0  0
  4  1  1  0  0  0
  1  2  1  0  0  0
  1  3  2  0  0  0
  3 10  1  0  0  0
 10 11  1  0  0  0
 11 12  1  0  0  0
 12 13  1  0  0  0
 12 14  2  0  0  0
 14 16  1  0  0  0
M  END
> <minimizedAffinity>
-6.86769

> <CNNscore>
0.6012623906

> <CNNaffinity>
5.5624661446

> <CNN_VS>
3.3445017338

> <CNNaffinity_variance>
0.0293888059

$$$$
/media/chris/experiments/cd1a-new-docking/inputs/ligands/6nux_ligand.pdb


 17 16  0  0  0  0  0  0  0  0999 V2000
  -38.8283   57.7677   61.3421 C   0  0  0  0  0  0  0  0  0  0  0  0
  -37.9726   58.7204   60.5567 C   0  0  0  0  0  0  0  0  0  0  0  0
  -38.2530   56.9615   62.2453 C   0  0  0  0  0  0  0  0  0  0  0  0
  -40.3262   57.7152   61.1272 C   0  0  0  0  0  0  0  0  0  0  0  0
  -40.9096   56.4290   61.7030 C   0  0  0  0  0  0  0  0  0  0  0  0
  -41.5750   54.4291   63.6439 C   0  0  0  0  0  0  0  0  0  0  0  0
  -42.1677   55.8014   63.7443 C   0  0  0  0  0  0  0  0  0  0  0  0
  -43.1123   56.1209   64.8637 C   0  0  0  0  0  0  0  0  0  0  0  0
  -41.8601   56.7395   62.8362 C   0  0  0  0  0  0  0  0  0  0  0  0
  -36.7591   57.0132   62.4686 C   0  0  0  0  0  0  0  0  0  0  0  0
  -36.4559   57.2424   63.9443 C   0  0  0  0  0  0  0  0  0  0  0  0
  -36.4377   58.7252   64.2463 C   0  0  0  0  0  0  0  0  0  0  0  0
  -35.3204   59.5751   63.7257 C   0  0  0  0  0  0  0  0  0  0  0  0
  -37.4205   59.2844   64.9675 C   0  0  0  0  0  0  0  0  0  0  0  0
  -38.1162   61.0138   66.5025 O   0  0  0  0  0  0  0  0  0  0  0  0
  -37.4219   60.7644   65.2753 C   0  0  0  0  0  0  0  0  0  0  0  0
  -38.1106   61.9656   66.6894 H   0  0  0  0  0  0  0  0  0  0  0  0
  6  7  1  0  0  0
 15 16  1  0  0  0
 15 17  1  0  0  0
  7  8  1  0  0  0
  7  9  2  0  0  0
  9  5  1  0  0  0
  5  4  1  0  0  0
  4  1  1  0  0  0
  1  2  1  0  0  0
  1  3  2  0  0  0
  3 10  1  0  0  0
 10 11  1  0  0  0
 11 12  1  0  0  0
 12 13  1  0  0  0
 12 14  2  0  0  0
 14 16  1  0  0  0
M  END
> <minimizedAffinity>
-6.77280

> <CNNscore>
0.6006087661

> <CNNaffinity>
5.5668759346

> <CNN_VS>
3.3435144424

> <CNNaffinity_variance>
0.0192767307

$$$$
/media/chris/experiments/cd1a-new-docking/inputs/ligands/6nux_ligand.pdb


 17 16  0  0  0  0  0  0  0  0999 V2000
  -37.5957   57.2732   63.6180 C   0  0  0  0  0  0  0  0  0  0  0  0
  -38.6147   57.7085   64.6325 C   0  0  0  0  0  0  0  0  0  0  0  0
  -38.0096   56.7983   62.4348 C   0  0  0  0  0  0  0  0  0  0  0  0
  -36.1147   57.3712   63.9171 C   0  0  0  0  0  0  0  0  0  0  0  0
  -35.2942   57.2074   62.6419 C   0  0  0  0  0  0  0  0  0  0  0  0
  -32.5989   56.4889   61.9872 C   0  0  0  0  0  0  0  0  0  0  0  0
  -32.9506   57.9192   62.2616 C   0  0  0  0  0  0  0  0  0  0  0  0
  -31.8843   58.9708   62.1943 C   0  0  0  0  0  0  0  0  0  0  0  0
  -34.2109   58.2589   62.5705 C   0  0  0  0  0  0  0  0  0  0  0  0
  -39.4865   56.7035   62.1280 C   0  0  0  0  0  0  0  0  0  0  0  0
  -39.8467   57.6418   60.9827 C   0  0  0  0  0  0  0  0  0  0  0  0
  -40.0583   59.0451   61.5084 C   0  0  0  0  0  0  0  0  0  0  0  0
  -39.0969   60.1304   61.1351 C   0  0  0  0  0  0  0  0  0  0  0  0
  -41.1063   59.3249   62.2972 C   0  0  0  0  0  0  0  0  0  0  0  0
  -40.8352   60.8316   64.1646 O   0  0  0  0  0  0  0  0  0  0  0  0
  -41.3367   60.7215   62.8279 C   0  0  0  0  0  0  0  0  0  0  0  0
  -40.9884   61.7309   64.4943 H   0  0  0  0  0  0  0  0  0  0  0  0
  6  7  1  0  0  0
 15 16  1  0  0  0
 15 17  1  0  0  0
  7  8  1  0  0  0
  7  9  2  0  0  0
  9  5  1  0  0  0
  5  4  1  0  0  0
  4  1  1  0  0  0
  1  2  1  0  0  0
  1  3  2  0  0  0
  3 10  1  0  0  0
 10 11  1  0  0  0
 11 12  1  0  0  0
 12 13  1  0  0  0
 12 14  2  0  0  0
 14 16  1  0  0  0
M  END
> <minimizedAffinity>
-6.76990

> <CNNscore>
0.5721144676

> <CNNaffinity>
5.4780731201

> <CNN_VS>
3.1340849400

> <CNNaffinity_variance>
0.0580988638

$$$$
