/media/chris/experiments/cd1a-new-docking/inputs/ligands/6nux_ligand.pdb


 17 16  0  0  0  0  0  0  0  0999 V2000
  -38.2805   57.5931   61.4023 C   0  0  0  0  0  0  0  0  0  0  0  0
  -39.3478   58.2179   60.5494 C   0  0  0  0  0  0  0  0  0  0  0  0
  -38.6328   56.7338   62.3688 C   0  0  0  0  0  0  0  0  0  0  0  0
  -36.8193   57.9197   61.1766 C   0  0  0  0  0  0  0  0  0  0  0  0
  -35.9444   57.2281   62.2169 C   0  0  0  0  0  0  0  0  0  0  0  0
  -34.4151   58.8271   64.0373 C   0  0  0  0  0  0  0  0  0  0  0  0
  -33.7702   58.2602   62.8096 C   0  0  0  0  0  0  0  0  0  0  0  0
  -32.3220   58.5364   62.5381 C   0  0  0  0  0  0  0  0  0  0  0  0
  -34.4835   57.5128   61.9542 C   0  0  0  0  0  0  0  0  0  0  0  0
  -40.0892   56.3993   62.5952 C   0  0  0  0  0  0  0  0  0  0  0  0
  -40.6031   57.1064   63.8435 C   0  0  0  0  0  0  0  0  0  0  0  0
  -41.8777   56.4481   64.3253 C   0  0  0  0  0  0  0  0  0  0  0  0
  -42.1414   55.0115   63.9966 C   0  0  0  0  0  0  0  0  0  0  0  0
  -42.7668   57.1396   65.0533 C   0  0  0  0  0  0  0  0  0  0  0  0
  -45.1614   56.9730   64.7899 O   0  0  0  0  0  0  0  0  0  0  0  0
  -44.0432   56.4978   65.5475 C   0  0  0  0  0  0  0  0  0  0  0  0
  -45.9739   56.5549   65.1155 H   0  0  0  0  0  0  0  0  0  0  0  0
  6  7  1  0  0  0
 15 16  1  0  0  0
 15 17  1  0  0  0
  7  8  1  0  0  0
  7  9  2  0  0  0
  9  5  1  0  0  0
  5  4  1  0  0  0
  4  1  1  0  0  0
  1  2  1  0  0  0
  1  3  2  0  0  0
  3 10  1  0  0  0
 10 11  1  0  0  0
 11 12  1  0  0  0
 12 13  1  0  0  0
 12 14  2  0  0  0
 14 16  1  0  0  0
M  END
> <minimizedAffinity>
-6.97836

> <CNNscore>
0.8273119926

> <CNNaffinity>
5.7453093529

> <CNN_VS>
4.7531633377

> <CNNaffinity_variance>
0.0066114501

$$$$
/media/chris/experiments/cd1a-new-docking/inputs/ligands/6nux_ligand.pdb


 17 16  0  0  0  0  0  0  0  0999 V2000
  -42.3722   56.8525   64.5641 C   0  0  0  0  0  0  0  0  0  0  0  0
  -41.6366   58.1064   64.9430 C   0  0  0  0  0  0  0  0  0  0  0  0
  -42.1673   56.3120   63.3548 C   0  0  0  0  0  0  0  0  0  0  0  0
  -43.3325   56.1956   65.5331 C   0  0  0  0  0  0  0  0  0  0  0  0
  -44.7429   56.7474   65.3532 C   0  0  0  0  0  0  0  0  0  0  0  0
  -47.4162   55.9704   66.0313 C   0  0  0  0  0  0  0  0  0  0  0  0
  -46.5909   56.7548   67.0051 C   0  0  0  0  0  0  0  0  0  0  0  0
  -47.1725   57.1327   68.3340 C   0  0  0  0  0  0  0  0  0  0  0  0
  -45.3398   57.1219   66.6903 C   0  0  0  0  0  0  0  0  0  0  0  0
  -41.2056   56.9597   62.3853 C   0  0  0  0  0  0  0  0  0  0  0  0
  -39.8581   56.2492   62.4279 C   0  0  0  0  0  0  0  0  0  0  0  0
  -38.7851   57.1354   61.8332 C   0  0  0  0  0  0  0  0  0  0  0  0
  -37.3765   57.0305   62.3293 C   0  0  0  0  0  0  0  0  0  0  0  0
  -39.0856   58.0059   60.8582 C   0  0  0  0  0  0  0  0  0  0  0  0
  -38.0277   60.1765   60.8893 O   0  0  0  0  0  0  0  0  0  0  0  0
  -38.0265   58.8960   60.2487 C   0  0  0  0  0  0  0  0  0  0  0  0
  -37.3450   60.7384   60.4905 H   0  0  0  0  0  0  0  0  0  0  0  0
  6  7  1  0  0  0
 15 16  1  0  0  0
 15 17  1  0  0  0
  7  8  1  0  0  0
  7  9  2  0  0  0
  9  5  1  0  0  0
  5  4  1  0  0  0
  4  1  1  0  0  0
  1  2  1  0  0  0
  1  3  2  0  0  0
  3 10  1  0  0  0
 10 11  1  0  0  0
 11 12  1  0  0  0
 12 13  1  0  0  0
 12 14  2  0  0  0
 14 16  1  0  0  0
M  END
> <minimizedAffinity>
-6.75684

> <CNNscore>
0.8076403141

> <CNNaffinity>
5.9101319313

> <CNN_VS>
4.7732605934

> <CNNaffinity_variance>
0.1783812940

$$$$
/media/chris/experiments/cd1a-new-docking/inputs/ligands/6nux_ligand.pdb


 17 16  0  0  0  0  0  0  0  0999 V2000
  -38.2920   57.5395   61.4002 C   0  0  0  0  0  0  0  0  0  0  0  0
  -39.3313   58.1991   60.5391 C   0  0  0  0  0  0  0  0  0  0  0  0
  -38.6708   56.6138   62.2926 C   0  0  0  0  0  0  0  0  0  0  0  0
  -36.8289   57.9054   61.2652 C   0  0  0  0  0  0  0  0  0  0  0  0
  -36.0196   57.3320   62.4237 C   0  0  0  0  0  0  0  0  0  0  0  0
  -33.3824   56.4488   61.7347 C   0  0  0  0  0  0  0  0  0  0  0  0
  -33.5828   57.7840   62.3840 C   0  0  0  0  0  0  0  0  0  0  0  0
  -32.3963   58.6533   62.6733 C   0  0  0  0  0  0  0  0  0  0  0  0
  -34.8158   58.1999   62.7098 C   0  0  0  0  0  0  0  0  0  0  0  0
  -40.1290   56.2400   62.4281 C   0  0  0  0  0  0  0  0  0  0  0  0
  -40.6361   56.5975   63.8199 C   0  0  0  0  0  0  0  0  0  0  0  0
  -42.1347   56.8057   63.7886 C   0  0  0  0  0  0  0  0  0  0  0  0
  -42.9993   56.1319   64.8084 C   0  0  0  0  0  0  0  0  0  0  0  0
  -42.6919   57.5976   62.8606 C   0  0  0  0  0  0  0  0  0  0  0  0
  -44.5172   59.0741   63.4258 O   0  0  0  0  0  0  0  0  0  0  0  0
  -44.1863   57.8214   62.8164 C   0  0  0  0  0  0  0  0  0  0  0  0
  -45.4775   59.2067   63.3918 H   0  0  0  0  0  0  0  0  0  0  0  0
  6  7  1  0  0  0
 15 16  1  0  0  0
 15 17  1  0  0  0
  7  8  1  0  0  0
  7  9  2  0  0  0
  9  5  1  0  0  0
  5  4  1  0  0  0
  4  1  1  0  0  0
  1  2  1  0  0  0
  1  3  2  0  0  0
  3 10  1  0  0  0
 10 11  1  0  0  0
 11 12  1  0  0  0
 12 13  1  0  0  0
 12 14  2  0  0  0
 14 16  1  0  0  0
M  END
> <minimizedAffinity>
-6.81216

> <CNNscore>
0.7706800103

> <CNNaffinity>
5.7505793571

> <CNN_VS>
4.4318566322

> <CNNaffinity_variance>
0.0076365815

$$$$
/media/chris/experiments/cd1a-new-docking/inputs/ligands/6nux_ligand.pdb


 17 16  0  0  0  0  0  0  0  0999 V2000
  -49.9809   58.1902   61.0313 C   0  0  0  0  0  0  0  0  0  0  0  0
  -49.9988   59.6684   60.7639 C   0  0  0  0  0  0  0  0  0  0  0  0
  -49.6991   57.7503   62.2657 C   0  0  0  0  0  0  0  0  0  0  0  0
  -50.2821   57.1999   59.9262 C   0  0  0  0  0  0  0  0  0  0  0  0
  -49.0816   56.2949   59.6700 C   0  0  0  0  0  0  0  0  0  0  0  0
  -48.2662   56.3597   56.9239 C   0  0  0  0  0  0  0  0  0  0  0  0
  -47.5073   57.1411   57.9526 C   0  0  0  0  0  0  0  0  0  0  0  0
  -46.3183   57.9541   57.5375 C   0  0  0  0  0  0  0  0  0  0  0  0
  -47.8849   57.1115   59.2393 C   0  0  0  0  0  0  0  0  0  0  0  0
  -49.4032   58.7340   63.3744 C   0  0  0  0  0  0  0  0  0  0  0  0
  -49.3709   58.0169   64.7186 C   0  0  0  0  0  0  0  0  0  0  0  0
  -47.9547   57.5986   65.0498 C   0  0  0  0  0  0  0  0  0  0  0  0
  -47.7179   56.4064   65.9238 C   0  0  0  0  0  0  0  0  0  0  0  0
  -46.9111   58.2820   64.5571 C   0  0  0  0  0  0  0  0  0  0  0  0
  -44.8357   57.4030   63.6903 O   0  0  0  0  0  0  0  0  0  0  0  0
  -45.4895   57.8764   64.8729 C   0  0  0  0  0  0  0  0  0  0  0  0
  -43.9254   57.1459   63.9048 H   0  0  0  0  0  0  0  0  0  0  0  0
  6  7  1  0  0  0
 15 16  1  0  0  0
 15 17  1  0  0  0
  7  8  1  0  0  0
  7  9  2  0  0  0
  9  5  1  0  0  0
  5  4  1  0  0  0
  4  1  1  0  0  0
  1  2  1  0  0  0
  1  3  2  0  0  0
  3 10  1  0  0  0
 10 11  1  0  0  0
 11 12  1  0  0  0
 12 13  1  0  0  0
 12 14  2  0  0  0
 14 16  1  0  0  0
M  END
> <minimizedAffinity>
-7.27162

> <CNNscore>
0.6730849743

> <CNNaffinity>
5.8293704987

> <CNN_VS>
3.9236617088

> <CNNaffinity_variance>
0.0840348154

$$$$
/media/chris/experiments/cd1a-new-docking/inputs/ligands/6nux_ligand.pdb


 17 16  0  0  0  0  0  0  0  0999 V2000
  -38.4260   57.5747   61.3817 C   0  0  0  0  0  0  0  0  0  0  0  0
  -39.4506   58.2335   60.5025 C   0  0  0  0  0  0  0  0  0  0  0  0
  -38.8184   56.6419   62.2607 C   0  0  0  0  0  0  0  0  0  0  0  0
  -36.9625   57.9493   61.2795 C   0  0  0  0  0  0  0  0  0  0  0  0
  -36.1408   57.2081   62.3291 C   0  0  0  0  0  0  0  0  0  0  0  0
  -34.5489   58.5774   64.2786 C   0  0  0  0  0  0  0  0  0  0  0  0
  -33.9211   58.0713   63.0159 C   0  0  0  0  0  0  0  0  0  0  0  0
  -32.4570   58.2876   62.7775 C   0  0  0  0  0  0  0  0  0  0  0  0
  -34.6636   57.4315   62.1002 C   0  0  0  0  0  0  0  0  0  0  0  0
  -40.2770   56.2595   62.3634 C   0  0  0  0  0  0  0  0  0  0  0  0
  -40.7569   56.3988   63.8030 C   0  0  0  0  0  0  0  0  0  0  0  0
  -40.9244   57.8611   64.1550 C   0  0  0  0  0  0  0  0  0  0  0  0
  -41.8688   58.7117   63.3639 C   0  0  0  0  0  0  0  0  0  0  0  0
  -40.2407   58.3970   65.1769 C   0  0  0  0  0  0  0  0  0  0  0  0
  -39.1949   60.3454   66.1470 O   0  0  0  0  0  0  0  0  0  0  0  0
  -40.3984   59.8543   65.5465 C   0  0  0  0  0  0  0  0  0  0  0  0
  -39.3078   61.2803   66.3798 H   0  0  0  0  0  0  0  0  0  0  0  0
  6  7  1  0  0  0
 15 16  1  0  0  0
 15 17  1  0  0  0
  7  8  1  0  0  0
  7  9  2  0  0  0
  9  5  1  0  0  0
  5  4  1  0  0  0
  4  1  1  0  0  0
  1  2  1  0  0  0
  1  3  2  0  0  0
  3 10  1  0  0  0
 10 11  1  0  0  0
 11 12  1  0  0  0
 12 13  1  0  0  0
 12 14  2  0  0  0
 14 16  1  0  0  0
M  END
> <minimizedAffinity>
-6.87001

> <CNNscore>
0.6526111960

> <CNNaffinity>
5.6251664162

> <CNN_VS>
3.6710464954

> <CNNaffinity_variance>
0.0185270309

$$$$
/media/chris/experiments/cd1a-new-docking/inputs/ligands/6nux_ligand.pdb


 17 16  0  0  0  0  0  0  0  0999 V2000
  -49.9988   58.4464   60.9303 C   0  0  0  0  0  0  0  0  0  0  0  0
  -50.0013   59.9451   60.8257 C   0  0  0  0  0  0  0  0  0  0  0  0
  -49.7015   57.8714   62.1040 C   0  0  0  0  0  0  0  0  0  0  0  0
  -50.3327   57.5861   59.7299 C   0  0  0  0  0  0  0  0  0  0  0  0
  -49.2461   56.5421   59.4947 C   0  0  0  0  0  0  0  0  0  0  0  0
  -46.5358   57.3375   59.9755 C   0  0  0  0  0  0  0  0  0  0  0  0
  -47.0808   57.3287   58.5800 C   0  0  0  0  0  0  0  0  0  0  0  0
  -46.2014   57.7407   57.4380 C   0  0  0  0  0  0  0  0  0  0  0  0
  -48.3497   56.9588   58.3514 C   0  0  0  0  0  0  0  0  0  0  0  0
  -49.3730   58.7248   63.3074 C   0  0  0  0  0  0  0  0  0  0  0  0
  -48.0596   58.2696   63.9318 C   0  0  0  0  0  0  0  0  0  0  0  0
  -48.3188   57.6351   65.2811 C   0  0  0  0  0  0  0  0  0  0  0  0
  -49.6188   57.8835   65.9809 C   0  0  0  0  0  0  0  0  0  0  0  0
  -47.3965   56.8439   65.8486 C   0  0  0  0  0  0  0  0  0  0  0  0
  -48.0261   54.8295   67.0223 O   0  0  0  0  0  0  0  0  0  0  0  0
  -47.6393   56.1975   67.1935 C   0  0  0  0  0  0  0  0  0  0  0  0
  -48.1791   54.4256   67.8908 H   0  0  0  0  0  0  0  0  0  0  0  0
  6  7  1  0  0  0
 15 16  1  0  0  0
 15 17  1  0  0  0
  7  8  1  0  0  0
  7  9  2  0  0  0
  9  5  1  0  0  0
  5  4  1  0  0  0
  4  1  1  0  0  0
  1  2  1  0  0  0
  1  3  2  0  0  0
  3 10  1  0  0  0
 10 11  1  0  0  0
 11 12  1  0  0  0
 12 13  1  0  0  0
 12 14  2  0  0  0
 14 16  1  0  0  0
M  END
> <minimizedAffinity>
-7.93273

> <CNNscore>
0.6353567839

> <CNNaffinity>
5.9377069473

> <CNN_VS>
3.7725625038

> <CNNaffinity_variance>
0.1047162190

$$$$
/media/chris/experiments/cd1a-new-docking/inputs/ligands/6nux_ligand.pdb


 17 16  0  0  0  0  0  0  0  0999 V2000
  -49.1966   59.2481   61.5284 C   0  0  0  0  0  0  0  0  0  0  0  0
  -49.9241   58.0979   60.8922 C   0  0  0  0  0  0  0  0  0  0  0  0
  -49.0289   59.2632   62.8581 C   0  0  0  0  0  0  0  0  0  0  0  0
  -48.6498   60.3801   60.6844 C   0  0  0  0  0  0  0  0  0  0  0  0
  -47.1690   60.1663   60.3882 C   0  0  0  0  0  0  0  0  0  0  0  0
  -46.2153   57.4784   60.1141 C   0  0  0  0  0  0  0  0  0  0  0  0
  -46.5412   58.2886   58.8968 C   0  0  0  0  0  0  0  0  0  0  0  0
  -46.3631   57.6862   57.5358 C   0  0  0  0  0  0  0  0  0  0  0  0
  -46.9861   59.5479   59.0213 C   0  0  0  0  0  0  0  0  0  0  0  0
  -49.5673   58.1334   63.7054 C   0  0  0  0  0  0  0  0  0  0  0  0
  -49.8926   58.6361   65.1067 C   0  0  0  0  0  0  0  0  0  0  0  0
  -48.7508   58.3218   66.0489 C   0  0  0  0  0  0  0  0  0  0  0  0
  -47.8256   59.4151   66.4849 C   0  0  0  0  0  0  0  0  0  0  0  0
  -48.5688   57.0733   66.5038 C   0  0  0  0  0  0  0  0  0  0  0  0
  -46.3318   56.1906   66.7239 O   0  0  0  0  0  0  0  0  0  0  0  0
  -47.4368   56.7411   67.4492 C   0  0  0  0  0  0  0  0  0  0  0  0
  -45.6124   55.9815   67.3400 H   0  0  0  0  0  0  0  0  0  0  0  0
  6  7  1  0  0  0
 15 16  1  0  0  0
 15 17  1  0  0  0
  7  8  1  0  0  0
  7  9  2  0  0  0
  9  5  1  0  0  0
  5  4  1  0  0  0
  4  1  1  0  0  0
  1  2  1  0  0  0
  1  3  2  0  0  0
  3 10  1  0  0  0
 10 11  1  0  0  0
 11 12  1  0  0  0
 12 13  1  0  0  0
 12 14  2  0  0  0
 14 16  1  0  0  0
M  END
> <minimizedAffinity>
-7.19373

> <CNNscore>
0.6076285839

> <CNNaffinity>
5.8218855858

> <CNN_VS>
3.5375440121

> <CNNaffinity_variance>
0.1090386286

$$$$
/media/chris/experiments/cd1a-new-docking/inputs/ligands/6nux_ligand.pdb


 17 16  0  0  0  0  0  0  0  0999 V2000
  -39.4041   57.1752   61.6067 C   0  0  0  0  0  0  0  0  0  0  0  0
  -39.1885   58.2242   60.5531 C   0  0  0  0  0  0  0  0  0  0  0  0
  -38.3535   56.7196   62.3033 C   0  0  0  0  0  0  0  0  0  0  0  0
  -40.7904   56.6363   61.8901 C   0  0  0  0  0  0  0  0  0  0  0  0
  -40.8190   55.8926   63.2214 C   0  0  0  0  0  0  0  0  0  0  0  0
  -41.7752   57.7541   65.1784 C   0  0  0  0  0  0  0  0  0  0  0  0
  -42.6779   56.6758   64.6618 C   0  0  0  0  0  0  0  0  0  0  0  0
  -44.0823   56.5751   65.1762 C   0  0  0  0  0  0  0  0  0  0  0  0
  -42.2331   55.8015   63.7470 C   0  0  0  0  0  0  0  0  0  0  0  0
  -36.9681   57.2579   62.0291 C   0  0  0  0  0  0  0  0  0  0  0  0
  -36.1527   57.2909   63.3161 C   0  0  0  0  0  0  0  0  0  0  0  0
  -36.0212   58.7150   63.8107 C   0  0  0  0  0  0  0  0  0  0  0  0
  -37.0980   59.3062   64.6665 C   0  0  0  0  0  0  0  0  0  0  0  0
  -34.9421   59.4469   63.4965 C   0  0  0  0  0  0  0  0  0  0  0  0
  -34.1796   61.6777   62.9737 O   0  0  0  0  0  0  0  0  0  0  0  0
  -34.7908   60.8694   63.9853 C   0  0  0  0  0  0  0  0  0  0  0  0
  -34.0877   62.5872   63.2981 H   0  0  0  0  0  0  0  0  0  0  0  0
  6  7  1  0  0  0
 15 16  1  0  0  0
 15 17  1  0  0  0
  7  8  1  0  0  0
  7  9  2  0  0  0
  9  5  1  0  0  0
  5  4  1  0  0  0
  4  1  1  0  0  0
  1  2  1  0  0  0
  1  3  2  0  0  0
  3 10  1  0  0  0
 10 11  1  0  0  0
 11 12  1  0  0  0
 12 13  1  0  0  0
 12 14  2  0  0  0
 14 16  1  0  0  0
M  END
> <minimizedAffinity>
-6.51372

> <CNNscore>
0.5735851526

> <CNNaffinity>
5.6229705811

> <CNN_VS>
3.2252523899

> <CNNaffinity_variance>
0.0457785055

$$$$
/media/chris/experiments/cd1a-new-docking/inputs/ligands/6nux_ligand.pdb


 17 16  0  0  0  0  0  0  0  0999 V2000
  -38.7284   57.4475   61.5083 C   0  0  0  0  0  0  0  0  0  0  0  0
  -38.6280   58.5414   60.4835 C   0  0  0  0  0  0  0  0  0  0  0  0
  -37.6127   57.0001   62.1014 C   0  0  0  0  0  0  0  0  0  0  0  0
  -40.0714   56.8542   61.8782 C   0  0  0  0  0  0  0  0  0  0  0  0
  -40.1561   56.6044   63.3803 C   0  0  0  0  0  0  0  0  0  0  0  0
  -38.4364   57.9410   65.2420 C   0  0  0  0  0  0  0  0  0  0  0  0
  -39.8092   58.4753   64.9688 C   0  0  0  0  0  0  0  0  0  0  0  0
  -40.2783   59.7106   65.6766 C   0  0  0  0  0  0  0  0  0  0  0  0
  -40.6177   57.8511   64.0994 C   0  0  0  0  0  0  0  0  0  0  0  0
  -36.2698   57.5923   61.7406 C   0  0  0  0  0  0  0  0  0  0  0  0
  -35.3141   57.4869   62.9229 C   0  0  0  0  0  0  0  0  0  0  0  0
  -33.8865   57.6664   62.4539 C   0  0  0  0  0  0  0  0  0  0  0  0
  -33.1614   56.5171   61.8258 C   0  0  0  0  0  0  0  0  0  0  0  0
  -33.2708   58.8504   62.5876 C   0  0  0  0  0  0  0  0  0  0  0  0
  -31.4581   60.4178   62.2899 O   0  0  0  0  0  0  0  0  0  0  0  0
  -31.8469   59.0501   62.1208 C   0  0  0  0  0  0  0  0  0  0  0  0
  -30.5438   60.5338   61.9874 H   0  0  0  0  0  0  0  0  0  0  0  0
  6  7  1  0  0  0
 15 16  1  0  0  0
 15 17  1  0  0  0
  7  8  1  0  0  0
  7  9  2  0  0  0
  9  5  1  0  0  0
  5  4  1  0  0  0
  4  1  1  0  0  0
  1  2  1  0  0  0
  1  3  2  0  0  0
  3 10  1  0  0  0
 10 11  1  0  0  0
 11 12  1  0  0  0
 12 13  1  0  0  0
 12 14  2  0  0  0
 14 16  1  0  0  0
M  END
> <minimizedAffinity>
-6.97694

> <CNNscore>
0.5710885525

> <CNNaffinity>
5.6573190689

> <CNN_VS>
3.2308301926

> <CNNaffinity_variance>
0.0641346425

$$$$
