/media/chris/experiments/cd1a-new-docking/inputs/ligands/6nux_ligand.pdb


 17 16  0  0  0  0  0  0  0  0999 V2000
  -38.7351   57.7524   61.4142 C   0  0  0  0  0  0  0  0  0  0  0  0
  -37.8208   58.6259   60.6030 C   0  0  0  0  0  0  0  0  0  0  0  0
  -38.2166   56.9719   62.3727 C   0  0  0  0  0  0  0  0  0  0  0  0
  -40.2283   57.7509   61.1632 C   0  0  0  0  0  0  0  0  0  0  0  0
  -40.8621   56.4654   61.6844 C   0  0  0  0  0  0  0  0  0  0  0  0
  -41.5897   54.4199   63.5544 C   0  0  0  0  0  0  0  0  0  0  0  0
  -42.1405   55.8053   63.7028 C   0  0  0  0  0  0  0  0  0  0  0  0
  -43.0757   56.1141   64.8330 C   0  0  0  0  0  0  0  0  0  0  0  0
  -41.8036   56.7648   62.8281 C   0  0  0  0  0  0  0  0  0  0  0  0
  -36.7276   56.9733   62.6319 C   0  0  0  0  0  0  0  0  0  0  0  0
  -36.4532   57.1635   64.1188 C   0  0  0  0  0  0  0  0  0  0  0  0
  -35.5959   58.3918   64.3353 C   0  0  0  0  0  0  0  0  0  0  0  0
  -34.2366   58.2499   64.9465 C   0  0  0  0  0  0  0  0  0  0  0  0
  -36.0412   59.6041   63.9739 C   0  0  0  0  0  0  0  0  0  0  0  0
  -34.5272   61.1898   62.9614 O   0  0  0  0  0  0  0  0  0  0  0  0
  -35.1974   60.8417   64.1780 C   0  0  0  0  0  0  0  0  0  0  0  0
  -33.9895   61.9843   63.1045 H   0  0  0  0  0  0  0  0  0  0  0  0
  6  7  1  0  0  0
 15 16  1  0  0  0
 15 17  1  0  0  0
  7  8  1  0  0  0
  7  9  2  0  0  0
  9  5  1  0  0  0
  5  4  1  0  0  0
  4  1  1  0  0  0
  1  2  1  0  0  0
  1  3  2  0  0  0
  3 10  1  0  0  0
 10 11  1  0  0  0
 11 12  1  0  0  0
 12 13  1  0  0  0
 12 14  2  0  0  0
 14 16  1  0  0  0
M  END
> <minimizedAffinity>
-6.79906

> <CNNscore>
0.6948986650

> <CNNaffinity>
5.7297325134

> <CNN_VS>
3.9815833569

> <CNNaffinity_variance>
0.0293608159

$$$$
/media/chris/experiments/cd1a-new-docking/inputs/ligands/6nux_ligand.pdb


 17 16  0  0  0  0  0  0  0  0999 V2000
  -38.1063   57.4817   62.2830 C   0  0  0  0  0  0  0  0  0  0  0  0
  -38.4545   57.5867   63.7406 C   0  0  0  0  0  0  0  0  0  0  0  0
  -39.0836   57.5536   61.3684 C   0  0  0  0  0  0  0  0  0  0  0  0
  -36.6692   57.3021   61.8414 C   0  0  0  0  0  0  0  0  0  0  0  0
  -35.7341   57.2702   63.0459 C   0  0  0  0  0  0  0  0  0  0  0  0
  -33.1946   56.5494   61.9319 C   0  0  0  0  0  0  0  0  0  0  0  0
  -33.4512   57.9591   62.3695 C   0  0  0  0  0  0  0  0  0  0  0  0
  -32.3715   58.9889   62.2236 C   0  0  0  0  0  0  0  0  0  0  0  0
  -34.6382   58.2996   62.8932 C   0  0  0  0  0  0  0  0  0  0  0  0
  -40.5194   57.7385   61.8026 C   0  0  0  0  0  0  0  0  0  0  0  0
  -41.2908   56.4349   61.6367 C   0  0  0  0  0  0  0  0  0  0  0  0
  -41.7414   55.9230   62.9878 C   0  0  0  0  0  0  0  0  0  0  0  0
  -41.4867   54.4964   63.3637 C   0  0  0  0  0  0  0  0  0  0  0  0
  -42.3574   56.7410   63.8539 C   0  0  0  0  0  0  0  0  0  0  0  0
  -44.2028   55.9163   65.1752 O   0  0  0  0  0  0  0  0  0  0  0  0
  -42.8105   56.2490   65.2096 C   0  0  0  0  0  0  0  0  0  0  0  0
  -44.4818   55.6023   66.0495 H   0  0  0  0  0  0  0  0  0  0  0  0
  6  7  1  0  0  0
 15 16  1  0  0  0
 15 17  1  0  0  0
  7  8  1  0  0  0
  7  9  2  0  0  0
  9  5  1  0  0  0
  5  4  1  0  0  0
  4  1  1  0  0  0
  1  2  1  0  0  0
  1  3  2  0  0  0
  3 10  1  0  0  0
 10 11  1  0  0  0
 11 12  1  0  0  0
 12 13  1  0  0  0
 12 14  2  0  0  0
 14 16  1  0  0  0
M  END
> <minimizedAffinity>
-6.88441

> <CNNscore>
0.6494106650

> <CNNaffinity>
5.7038888931

> <CNN_VS>
3.7041661739

> <CNNaffinity_variance>
0.0098462133

$$$$
/media/chris/experiments/cd1a-new-docking/inputs/ligands/6nux_ligand.pdb


 17 16  0  0  0  0  0  0  0  0999 V2000
  -39.4585   57.2344   61.5413 C   0  0  0  0  0  0  0  0  0  0  0  0
  -39.0035   58.2584   60.5406 C   0  0  0  0  0  0  0  0  0  0  0  0
  -38.5662   56.7054   62.3902 C   0  0  0  0  0  0  0  0  0  0  0  0
  -40.9084   56.8022   61.6019 C   0  0  0  0  0  0  0  0  0  0  0  0
  -41.7592   57.8619   62.2940 C   0  0  0  0  0  0  0  0  0  0  0  0
  -41.0734   58.0612   65.0688 C   0  0  0  0  0  0  0  0  0  0  0  0
  -42.3111   57.3277   64.6506 C   0  0  0  0  0  0  0  0  0  0  0  0
  -43.1864   56.6970   65.6915 C   0  0  0  0  0  0  0  0  0  0  0  0
  -42.6341   57.2308   63.3525 C   0  0  0  0  0  0  0  0  0  0  0  0
  -37.1187   57.1370   62.3385 C   0  0  0  0  0  0  0  0  0  0  0  0
  -36.5767   57.3292   63.7497 C   0  0  0  0  0  0  0  0  0  0  0  0
  -35.1369   57.7918   63.6941 C   0  0  0  0  0  0  0  0  0  0  0  0
  -34.4672   58.2855   64.9388 C   0  0  0  0  0  0  0  0  0  0  0  0
  -34.4541   57.7526   62.5404 C   0  0  0  0  0  0  0  0  0  0  0  0
  -32.9510   59.6144   62.2149 O   0  0  0  0  0  0  0  0  0  0  0  0
  -33.0139   58.2062   62.4665 C   0  0  0  0  0  0  0  0  0  0  0  0
  -32.0231   59.8935   62.1695 H   0  0  0  0  0  0  0  0  0  0  0  0
  6  7  1  0  0  0
 15 16  1  0  0  0
 15 17  1  0  0  0
  7  8  1  0  0  0
  7  9  2  0  0  0
  9  5  1  0  0  0
  5  4  1  0  0  0
  4  1  1  0  0  0
  1  2  1  0  0  0
  1  3  2  0  0  0
  3 10  1  0  0  0
 10 11  1  0  0  0
 11 12  1  0  0  0
 12 13  1  0  0  0
 12 14  2  0  0  0
 14 16  1  0  0  0
M  END
> <minimizedAffinity>
-6.65944

> <CNNscore>
0.6469223499

> <CNNaffinity>
5.7729077339

> <CNN_VS>
3.7346229553

> <CNNaffinity_variance>
0.0179070290

$$$$
/media/chris/experiments/cd1a-new-docking/inputs/ligands/6nux_ligand.pdb


 17 16  0  0  0  0  0  0  0  0999 V2000
  -50.0299   58.5440   61.3985 C   0  0  0  0  0  0  0  0  0  0  0  0
  -49.9946   59.9965   61.0165 C   0  0  0  0  0  0  0  0  0  0  0  0
  -49.7343   58.1893   62.6568 C   0  0  0  0  0  0  0  0  0  0  0  0
  -50.3998   57.4849   60.3815 C   0  0  0  0  0  0  0  0  0  0  0  0
  -49.2923   56.4436   60.2591 C   0  0  0  0  0  0  0  0  0  0  0  0
  -46.7203   57.6500   60.6324 C   0  0  0  0  0  0  0  0  0  0  0  0
  -47.2005   57.3137   59.2537 C   0  0  0  0  0  0  0  0  0  0  0  0
  -46.3291   57.6143   58.0713 C   0  0  0  0  0  0  0  0  0  0  0  0
  -48.4047   56.7508   59.0750 C   0  0  0  0  0  0  0  0  0  0  0  0
  -49.3700   59.2423   63.6780 C   0  0  0  0  0  0  0  0  0  0  0  0
  -49.9689   58.8889   65.0340 C   0  0  0  0  0  0  0  0  0  0  0  0
  -48.8789   58.4335   65.9799 C   0  0  0  0  0  0  0  0  0  0  0  0
  -47.7881   59.3830   66.3678 C   0  0  0  0  0  0  0  0  0  0  0  0
  -48.8893   57.1895   66.4810 C   0  0  0  0  0  0  0  0  0  0  0  0
  -46.9638   55.7637   66.7826 O   0  0  0  0  0  0  0  0  0  0  0  0
  -47.8118   56.7183   67.4308 C   0  0  0  0  0  0  0  0  0  0  0  0
  -46.2772   55.4689   67.4010 H   0  0  0  0  0  0  0  0  0  0  0  0
  6  7  1  0  0  0
 15 16  1  0  0  0
 15 17  1  0  0  0
  7  8  1  0  0  0
  7  9  2  0  0  0
  9  5  1  0  0  0
  5  4  1  0  0  0
  4  1  1  0  0  0
  1  2  1  0  0  0
  1  3  2  0  0  0
  3 10  1  0  0  0
 10 11  1  0  0  0
 11 12  1  0  0  0
 12 13  1  0  0  0
 12 14  2  0  0  0
 14 16  1  0  0  0
M  END
> <minimizedAffinity>
-7.14099

> <CNNscore>
0.6085966229

> <CNNaffinity>
5.8717532158

> <CNN_VS>
3.5735292435

> <CNNaffinity_variance>
0.1657172740

$$$$
/media/chris/experiments/cd1a-new-docking/inputs/ligands/6nux_ligand.pdb


 17 16  0  0  0  0  0  0  0  0999 V2000
  -37.6053   57.3364   63.7422 C   0  0  0  0  0  0  0  0  0  0  0  0
  -38.6429   57.7026   64.7651 C   0  0  0  0  0  0  0  0  0  0  0  0
  -37.9972   56.8664   62.5497 C   0  0  0  0  0  0  0  0  0  0  0  0
  -36.1303   57.4983   64.0436 C   0  0  0  0  0  0  0  0  0  0  0  0
  -35.2931   57.2480   62.7936 C   0  0  0  0  0  0  0  0  0  0  0  0
  -32.6638   56.4965   61.9380 C   0  0  0  0  0  0  0  0  0  0  0  0
  -32.9663   57.9252   62.2728 C   0  0  0  0  0  0  0  0  0  0  0  0
  -31.8855   58.9579   62.1602 C   0  0  0  0  0  0  0  0  0  0  0  0
  -34.1955   58.2802   62.6756 C   0  0  0  0  0  0  0  0  0  0  0  0
  -39.4682   56.7081   62.2408 C   0  0  0  0  0  0  0  0  0  0  0  0
  -39.8326   57.5067   60.9952 C   0  0  0  0  0  0  0  0  0  0  0  0
  -40.0598   58.9584   61.3575 C   0  0  0  0  0  0  0  0  0  0  0  0
  -39.1738   60.0161   60.7762 C   0  0  0  0  0  0  0  0  0  0  0  0
  -41.0554   59.3045   62.1869 C   0  0  0  0  0  0  0  0  0  0  0  0
  -41.8034   60.8396   63.8944 O   0  0  0  0  0  0  0  0  0  0  0  0
  -41.3005   60.7496   62.5566 C   0  0  0  0  0  0  0  0  0  0  0  0
  -41.9568   61.7703   64.1201 H   0  0  0  0  0  0  0  0  0  0  0  0
  6  7  1  0  0  0
 15 16  1  0  0  0
 15 17  1  0  0  0
  7  8  1  0  0  0
  7  9  2  0  0  0
  9  5  1  0  0  0
  5  4  1  0  0  0
  4  1  1  0  0  0
  1  2  1  0  0  0
  1  3  2  0  0  0
  3 10  1  0  0  0
 10 11  1  0  0  0
 11 12  1  0  0  0
 12 13  1  0  0  0
 12 14  2  0  0  0
 14 16  1  0  0  0
M  END
> <minimizedAffinity>
-6.67892

> <CNNscore>
0.5965123773

> <CNNaffinity>
5.4827933311

> <CNN_VS>
3.2705540657

> <CNNaffinity_variance>
0.0515266769

$$$$
/media/chris/experiments/cd1a-new-docking/inputs/ligands/6nux_ligand.pdb


 17 16  0  0  0  0  0  0  0  0999 V2000
  -38.4048   57.5396   61.4018 C   0  0  0  0  0  0  0  0  0  0  0  0
  -39.4371   58.2223   60.5501 C   0  0  0  0  0  0  0  0  0  0  0  0
  -38.7957   56.6208   62.2960 C   0  0  0  0  0  0  0  0  0  0  0  0
  -36.9355   57.8748   61.2551 C   0  0  0  0  0  0  0  0  0  0  0  0
  -36.1254   57.2609   62.3922 C   0  0  0  0  0  0  0  0  0  0  0  0
  -34.5149   59.1542   63.8175 C   0  0  0  0  0  0  0  0  0  0  0  0
  -33.8937   58.2662   62.7830 C   0  0  0  0  0  0  0  0  0  0  0  0
  -32.4263   58.3757   62.4965 C   0  0  0  0  0  0  0  0  0  0  0  0
  -34.6450   57.3801   62.1125 C   0  0  0  0  0  0  0  0  0  0  0  0
  -40.2602   56.2776   62.4431 C   0  0  0  0  0  0  0  0  0  0  0  0
  -40.6974   56.4496   63.8927 C   0  0  0  0  0  0  0  0  0  0  0  0
  -40.8817   57.9182   64.2085 C   0  0  0  0  0  0  0  0  0  0  0  0
  -41.8543   58.7321   63.4128 C   0  0  0  0  0  0  0  0  0  0  0  0
  -40.1880   58.4923   65.2023 C   0  0  0  0  0  0  0  0  0  0  0  0
  -39.2490   60.4248   66.3048 O   0  0  0  0  0  0  0  0  0  0  0  0
  -40.3621   59.9566   65.5353 C   0  0  0  0  0  0  0  0  0  0  0  0
  -39.3717   61.3643   66.5123 H   0  0  0  0  0  0  0  0  0  0  0  0
  6  7  1  0  0  0
 15 16  1  0  0  0
 15 17  1  0  0  0
  7  8  1  0  0  0
  7  9  2  0  0  0
  9  5  1  0  0  0
  5  4  1  0  0  0
  4  1  1  0  0  0
  1  2  1  0  0  0
  1  3  2  0  0  0
  3 10  1  0  0  0
 10 11  1  0  0  0
 11 12  1  0  0  0
 12 13  1  0  0  0
 12 14  2  0  0  0
 14 16  1  0  0  0
M  END
> <minimizedAffinity>
-6.85959

> <CNNscore>
0.5934939384

> <CNNaffinity>
5.5691680908

> <CNN_VS>
3.3052675724

> <CNNaffinity_variance>
0.0145957451

$$$$
/media/chris/experiments/cd1a-new-docking/inputs/ligands/6nux_ligand.pdb


 17 16  0  0  0  0  0  0  0  0999 V2000
  -49.7051   58.9013   64.4254 C   0  0  0  0  0  0  0  0  0  0  0  0
  -49.6578   60.3645   64.0880 C   0  0  0  0  0  0  0  0  0  0  0  0
  -49.5296   57.9976   63.4511 C   0  0  0  0  0  0  0  0  0  0  0  0
  -49.9422   58.4423   65.8487 C   0  0  0  0  0  0  0  0  0  0  0  0
  -48.7706   58.8321   66.7440 C   0  0  0  0  0  0  0  0  0  0  0  0
  -46.2042   59.5712   65.7061 C   0  0  0  0  0  0  0  0  0  0  0  0
  -46.4586   58.1635   66.1513 C   0  0  0  0  0  0  0  0  0  0  0  0
  -45.3642   57.1441   66.0482 C   0  0  0  0  0  0  0  0  0  0  0  0
  -47.6594   57.8135   66.6357 C   0  0  0  0  0  0  0  0  0  0  0  0
  -49.2868   58.4495   62.0294 C   0  0  0  0  0  0  0  0  0  0  0  0
  -50.0525   57.5603   61.0572 C   0  0  0  0  0  0  0  0  0  0  0  0
  -49.1536   57.1504   59.9108 C   0  0  0  0  0  0  0  0  0  0  0  0
  -49.6705   57.2035   58.5066 C   0  0  0  0  0  0  0  0  0  0  0  0
  -47.8948   56.7504   60.1431 C   0  0  0  0  0  0  0  0  0  0  0  0
  -47.0807   54.9324   58.7781 O   0  0  0  0  0  0  0  0  0  0  0  0
  -46.9808   56.3418   59.0105 C   0  0  0  0  0  0  0  0  0  0  0  0
  -46.4905   54.6822   58.0501 H   0  0  0  0  0  0  0  0  0  0  0  0
  6  7  1  0  0  0
 15 16  1  0  0  0
 15 17  1  0  0  0
  7  8  1  0  0  0
  7  9  2  0  0  0
  9  5  1  0  0  0
  5  4  1  0  0  0
  4  1  1  0  0  0
  1  2  1  0  0  0
  1  3  2  0  0  0
  3 10  1  0  0  0
 10 11  1  0  0  0
 11 12  1  0  0  0
 12 13  1  0  0  0
 12 14  2  0  0  0
 14 16  1  0  0  0
M  END
> <minimizedAffinity>
-6.29974

> <CNNscore>
0.5786784887

> <CNNaffinity>
5.9580469131

> <CNN_VS>
3.4477934837

> <CNNaffinity_variance>
0.1768792421

$$$$
/media/chris/experiments/cd1a-new-docking/inputs/ligands/6nux_ligand.pdb


 17 16  0  0  0  0  0  0  0  0999 V2000
  -38.5262   57.6119   61.4001 C   0  0  0  0  0  0  0  0  0  0  0  0
  -38.3579   58.7999   60.4960 C   0  0  0  0  0  0  0  0  0  0  0  0
  -37.4446   57.0650   61.9726 C   0  0  0  0  0  0  0  0  0  0  0  0
  -39.8993   57.0347   61.6724 C   0  0  0  0  0  0  0  0  0  0  0  0
  -40.0559   56.6876   63.1492 C   0  0  0  0  0  0  0  0  0  0  0  0
  -38.3715   57.7495   65.2095 C   0  0  0  0  0  0  0  0  0  0  0  0
  -39.6844   58.4018   64.9006 C   0  0  0  0  0  0  0  0  0  0  0  0
  -40.1124   59.6107   65.6769 C   0  0  0  0  0  0  0  0  0  0  0  0
  -40.4763   57.9062   63.9382 C   0  0  0  0  0  0  0  0  0  0  0  0
  -36.0719   57.6402   61.7093 C   0  0  0  0  0  0  0  0  0  0  0  0
  -35.1295   57.2973   62.8566 C   0  0  0  0  0  0  0  0  0  0  0  0
  -33.6974   57.5726   62.4517 C   0  0  0  0  0  0  0  0  0  0  0  0
  -32.8842   56.4882   61.8161 C   0  0  0  0  0  0  0  0  0  0  0  0
  -33.1559   58.7837   62.6488 C   0  0  0  0  0  0  0  0  0  0  0  0
  -31.5883   60.4607   61.8994 O   0  0  0  0  0  0  0  0  0  0  0  0
  -31.7289   59.0787   62.2467 C   0  0  0  0  0  0  0  0  0  0  0  0
  -30.6697   60.6379   61.6434 H   0  0  0  0  0  0  0  0  0  0  0  0
  6  7  1  0  0  0
 15 16  1  0  0  0
 15 17  1  0  0  0
  7  8  1  0  0  0
  7  9  2  0  0  0
  9  5  1  0  0  0
  5  4  1  0  0  0
  4  1  1  0  0  0
  1  2  1  0  0  0
  1  3  2  0  0  0
  3 10  1  0  0  0
 10 11  1  0  0  0
 11 12  1  0  0  0
 12 13  1  0  0  0
 12 14  2  0  0  0
 14 16  1  0  0  0
M  END
> <minimizedAffinity>
-6.97854

> <CNNscore>
0.5547290444

> <CNNaffinity>
5.6445670128

> <CNN_VS>
3.1312053204

> <CNNaffinity_variance>
0.0625604242

$$$$
/media/chris/experiments/cd1a-new-docking/inputs/ligands/6nux_ligand.pdb


 17 16  0  0  0  0  0  0  0  0999 V2000
  -38.3897   57.5696   61.3769 C   0  0  0  0  0  0  0  0  0  0  0  0
  -39.4205   58.2646   60.5334 C   0  0  0  0  0  0  0  0  0  0  0  0
  -38.7841   56.6533   62.2721 C   0  0  0  0  0  0  0  0  0  0  0  0
  -36.9180   57.8898   61.2208 C   0  0  0  0  0  0  0  0  0  0  0  0
  -36.1050   57.2535   62.3433 C   0  0  0  0  0  0  0  0  0  0  0  0
  -34.5360   59.1509   63.8090 C   0  0  0  0  0  0  0  0  0  0  0  0
  -33.8932   58.2899   62.7649 C   0  0  0  0  0  0  0  0  0  0  0  0
  -32.4260   58.4287   62.4899 C   0  0  0  0  0  0  0  0  0  0  0  0
  -34.6250   57.4021   62.0755 C   0  0  0  0  0  0  0  0  0  0  0  0
  -40.2511   56.3251   62.4285 C   0  0  0  0  0  0  0  0  0  0  0  0
  -40.6896   56.5517   63.8702 C   0  0  0  0  0  0  0  0  0  0  0  0
  -40.7067   58.0328   64.1807 C   0  0  0  0  0  0  0  0  0  0  0  0
  -39.7330   58.5953   65.1691 C   0  0  0  0  0  0  0  0  0  0  0  0
  -41.5806   58.8458   63.5690 C   0  0  0  0  0  0  0  0  0  0  0  0
  -42.8687   60.8860   63.4707 O   0  0  0  0  0  0  0  0  0  0  0  0
  -41.6095   60.3283   63.8628 C   0  0  0  0  0  0  0  0  0  0  0  0
  -42.8755   61.8365   63.6637 H   0  0  0  0  0  0  0  0  0  0  0  0
  6  7  1  0  0  0
 15 16  1  0  0  0
 15 17  1  0  0  0
  7  8  1  0  0  0
  7  9  2  0  0  0
  9  5  1  0  0  0
  5  4  1  0  0  0
  4  1  1  0  0  0
  1  2  1  0  0  0
  1  3  2  0  0  0
  3 10  1  0  0  0
 10 11  1  0  0  0
 11 12  1  0  0  0
 12 13  1  0  0  0
 12 14  2  0  0  0
 14 16  1  0  0  0
M  END
> <minimizedAffinity>
-6.64962

> <CNNscore>
0.5160905719

> <CNNaffinity>
5.4630813599

> <CNN_VS>
2.8194448948

> <CNNaffinity_variance>
0.0468095541

$$$$
