/media/chris/experiments/cd1a-new-docking/inputs/ligands/6nux_ligand.pdb


 17 16  0  0  0  0  0  0  0  0999 V2000
  -41.9687   55.6908   63.7271 C   0  0  0  0  0  0  0  0  0  0  0  0
  -41.5793   54.2764   63.4034 C   0  0  0  0  0  0  0  0  0  0  0  0
  -41.2848   56.7023   63.1740 C   0  0  0  0  0  0  0  0  0  0  0  0
  -43.1235   55.9810   64.6625 C   0  0  0  0  0  0  0  0  0  0  0  0
  -43.5242   57.4506   64.5859 C   0  0  0  0  0  0  0  0  0  0  0  0
  -43.5344   59.1851   66.8665 C   0  0  0  0  0  0  0  0  0  0  0  0
  -44.7979   58.5084   66.4303 C   0  0  0  0  0  0  0  0  0  0  0  0
  -46.0659   58.7418   67.1952 C   0  0  0  0  0  0  0  0  0  0  0  0
  -44.7964   57.6941   65.3645 C   0  0  0  0  0  0  0  0  0  0  0  0
  -40.1349   56.4191   62.2350 C   0  0  0  0  0  0  0  0  0  0  0  0
  -39.9593   57.5735   61.2559 C   0  0  0  0  0  0  0  0  0  0  0  0
  -38.4924   57.9198   61.1196 C   0  0  0  0  0  0  0  0  0  0  0  0
  -38.0566   58.9109   60.0854 C   0  0  0  0  0  0  0  0  0  0  0  0
  -37.5823   57.3533   61.9257 C   0  0  0  0  0  0  0  0  0  0  0  0
  -35.8009   58.8300   62.6164 O   0  0  0  0  0  0  0  0  0  0  0  0
  -36.1134   57.6904   61.8077 C   0  0  0  0  0  0  0  0  0  0  0  0
  -34.8568   59.0367   62.5328 H   0  0  0  0  0  0  0  0  0  0  0  0
  6  7  1  0  0  0
 15 16  1  0  0  0
 15 17  1  0  0  0
  7  8  1  0  0  0
  7  9  2  0  0  0
  9  5  1  0  0  0
  5  4  1  0  0  0
  4  1  1  0  0  0
  1  2  1  0  0  0
  1  3  2  0  0  0
  3 10  1  0  0  0
 10 11  1  0  0  0
 11 12  1  0  0  0
 12 13  1  0  0  0
 12 14  2  0  0  0
 14 16  1  0  0  0
M  END
> <minimizedAffinity>
-6.78311

> <CNNscore>
0.7795517445

> <CNNaffinity>
5.8973493576

> <CNN_VS>
4.5972890854

> <CNNaffinity_variance>
0.2173665017

$$$$
/media/chris/experiments/cd1a-new-docking/inputs/ligands/6nux_ligand.pdb


 17 16  0  0  0  0  0  0  0  0999 V2000
  -50.0011   58.4548   61.0194 C   0  0  0  0  0  0  0  0  0  0  0  0
  -49.9161   59.9506   60.9083 C   0  0  0  0  0  0  0  0  0  0  0  0
  -49.7664   57.8706   62.2027 C   0  0  0  0  0  0  0  0  0  0  0  0
  -50.3531   57.6078   59.8146 C   0  0  0  0  0  0  0  0  0  0  0  0
  -49.2661   56.5722   59.5465 C   0  0  0  0  0  0  0  0  0  0  0  0
  -46.5606   57.3737   60.0437 C   0  0  0  0  0  0  0  0  0  0  0  0
  -47.1071   57.3946   58.6489 C   0  0  0  0  0  0  0  0  0  0  0  0
  -46.2316   57.8396   57.5162 C   0  0  0  0  0  0  0  0  0  0  0  0
  -48.3738   57.0221   58.4127 C   0  0  0  0  0  0  0  0  0  0  0  0
  -49.4203   58.7110   63.4103 C   0  0  0  0  0  0  0  0  0  0  0  0
  -48.1336   58.2053   64.0513 C   0  0  0  0  0  0  0  0  0  0  0  0
  -48.4380   57.5575   65.3848 C   0  0  0  0  0  0  0  0  0  0  0  0
  -49.6829   57.9343   66.1262 C   0  0  0  0  0  0  0  0  0  0  0  0
  -47.6059   56.6411   65.9012 C   0  0  0  0  0  0  0  0  0  0  0  0
  -47.0540   56.5290   68.2494 O   0  0  0  0  0  0  0  0  0  0  0  0
  -47.8956   55.9798   67.2293 C   0  0  0  0  0  0  0  0  0  0  0  0
  -47.2486   56.0976   69.0961 H   0  0  0  0  0  0  0  0  0  0  0  0
  6  7  1  0  0  0
 15 16  1  0  0  0
 15 17  1  0  0  0
  7  8  1  0  0  0
  7  9  2  0  0  0
  9  5  1  0  0  0
  5  4  1  0  0  0
  4  1  1  0  0  0
  1  2  1  0  0  0
  1  3  2  0  0  0
  3 10  1  0  0  0
 10 11  1  0  0  0
 11 12  1  0  0  0
 12 13  1  0  0  0
 12 14  2  0  0  0
 14 16  1  0  0  0
M  END
> <minimizedAffinity>
-7.81952

> <CNNscore>
0.7258996367

> <CNNaffinity>
5.9840555191

> <CNN_VS>
4.3438239098

> <CNNaffinity_variance>
0.0929528922

$$$$
/media/chris/experiments/cd1a-new-docking/inputs/ligands/6nux_ligand.pdb


 17 16  0  0  0  0  0  0  0  0999 V2000
  -38.5205   57.5470   61.3536 C   0  0  0  0  0  0  0  0  0  0  0  0
  -39.5255   58.2626   60.4965 C   0  0  0  0  0  0  0  0  0  0  0  0
  -38.9393   56.5960   62.2003 C   0  0  0  0  0  0  0  0  0  0  0  0
  -37.0472   57.8852   61.2653 C   0  0  0  0  0  0  0  0  0  0  0  0
  -36.2669   57.1942   62.3787 C   0  0  0  0  0  0  0  0  0  0  0  0
  -34.7422   58.8291   64.1709 C   0  0  0  0  0  0  0  0  0  0  0  0
  -34.0696   58.1446   63.0204 C   0  0  0  0  0  0  0  0  0  0  0  0
  -32.5958   58.3222   62.8110 C   0  0  0  0  0  0  0  0  0  0  0  0
  -34.7805   57.3803   62.1782 C   0  0  0  0  0  0  0  0  0  0  0  0
  -40.4079   56.2498   62.2888 C   0  0  0  0  0  0  0  0  0  0  0  0
  -40.8760   56.3117   63.7377 C   0  0  0  0  0  0  0  0  0  0  0  0
  -42.3466   56.6646   63.7932 C   0  0  0  0  0  0  0  0  0  0  0  0
  -43.2108   56.0782   64.8660 C   0  0  0  0  0  0  0  0  0  0  0  0
  -42.8781   57.5070   62.8949 C   0  0  0  0  0  0  0  0  0  0  0  0
  -44.8963   57.8586   61.6164 O   0  0  0  0  0  0  0  0  0  0  0  0
  -44.3437   57.8750   62.9373 C   0  0  0  0  0  0  0  0  0  0  0  0
  -45.8360   58.0959   61.6561 H   0  0  0  0  0  0  0  0  0  0  0  0
  6  7  1  0  0  0
 15 16  1  0  0  0
 15 17  1  0  0  0
  7  8  1  0  0  0
  7  9  2  0  0  0
  9  5  1  0  0  0
  5  4  1  0  0  0
  4  1  1  0  0  0
  1  2  1  0  0  0
  1  3  2  0  0  0
  3 10  1  0  0  0
 10 11  1  0  0  0
 11 12  1  0  0  0
 12 13  1  0  0  0
 12 14  2  0  0  0
 14 16  1  0  0  0
M  END
> <minimizedAffinity>
-6.83477

> <CNNscore>
0.6875253320

> <CNNaffinity>
5.6791353226

> <CNN_VS>
3.9045493603

> <CNNaffinity_variance>
0.0084512709

$$$$
/media/chris/experiments/cd1a-new-docking/inputs/ligands/6nux_ligand.pdb


 17 16  0  0  0  0  0  0  0  0999 V2000
  -38.5227   57.4977   61.4188 C   0  0  0  0  0  0  0  0  0  0  0  0
  -39.6286   58.1653   60.6518 C   0  0  0  0  0  0  0  0  0  0  0  0
  -38.8257   56.5422   62.3086 C   0  0  0  0  0  0  0  0  0  0  0  0
  -37.0777   57.8890   61.1920 C   0  0  0  0  0  0  0  0  0  0  0  0
  -36.1991   57.3980   62.3380 C   0  0  0  0  0  0  0  0  0  0  0  0
  -34.3649   58.3335   64.3305 C   0  0  0  0  0  0  0  0  0  0  0  0
  -33.8816   58.0342   62.9443 C   0  0  0  0  0  0  0  0  0  0  0  0
  -32.4344   58.2296   62.6055 C   0  0  0  0  0  0  0  0  0  0  0  0
  -34.7377   57.5982   62.0085 C   0  0  0  0  0  0  0  0  0  0  0  0
  -40.2657   56.1431   62.5352 C   0  0  0  0  0  0  0  0  0  0  0  0
  -40.7457   56.6530   63.8886 C   0  0  0  0  0  0  0  0  0  0  0  0
  -42.2276   56.9548   63.8336 C   0  0  0  0  0  0  0  0  0  0  0  0
  -42.8481   57.3955   62.5441 C   0  0  0  0  0  0  0  0  0  0  0  0
  -42.9901   56.8201   64.9287 C   0  0  0  0  0  0  0  0  0  0  0  0
  -45.1787   56.1972   65.7372 O   0  0  0  0  0  0  0  0  0  0  0  0
  -44.4729   57.1124   64.8918 C   0  0  0  0  0  0  0  0  0  0  0  0
  -46.1280   56.3942   65.7056 H   0  0  0  0  0  0  0  0  0  0  0  0
  6  7  1  0  0  0
 15 16  1  0  0  0
 15 17  1  0  0  0
  7  8  1  0  0  0
  7  9  2  0  0  0
  9  5  1  0  0  0
  5  4  1  0  0  0
  4  1  1  0  0  0
  1  2  1  0  0  0
  1  3  2  0  0  0
  3 10  1  0  0  0
 10 11  1  0  0  0
 11 12  1  0  0  0
 12 13  1  0  0  0
 12 14  2  0  0  0
 14 16  1  0  0  0
M  END
> <minimizedAffinity>
-6.98667

> <CNNscore>
0.6860053539

> <CNNaffinity>
5.7965173721

> <CNN_VS>
3.9764418602

> <CNNaffinity_variance>
0.0397502780

$$$$
/media/chris/experiments/cd1a-new-docking/inputs/ligands/6nux_ligand.pdb


 17 16  0  0  0  0  0  0  0  0999 V2000
  -41.9168   55.8633   62.9477 C   0  0  0  0  0  0  0  0  0  0  0  0
  -41.5657   54.5105   63.4986 C   0  0  0  0  0  0  0  0  0  0  0  0
  -42.5988   56.7265   63.7136 C   0  0  0  0  0  0  0  0  0  0  0  0
  -41.5043   56.2591   61.5456 C   0  0  0  0  0  0  0  0  0  0  0  0
  -40.5377   57.4384   61.5798 C   0  0  0  0  0  0  0  0  0  0  0  0
  -38.0888   58.5263   60.5653 C   0  0  0  0  0  0  0  0  0  0  0  0
  -38.0630   57.5292   61.6833 C   0  0  0  0  0  0  0  0  0  0  0  0
  -36.7492   57.1024   62.2658 C   0  0  0  0  0  0  0  0  0  0  0  0
  -39.2072   57.0163   62.1593 C   0  0  0  0  0  0  0  0  0  0  0  0
  -43.0084   56.3395   65.1160 C   0  0  0  0  0  0  0  0  0  0  0  0
  -43.3773   57.5819   65.9175 C   0  0  0  0  0  0  0  0  0  0  0  0
  -44.8629   57.5909   66.2063 C   0  0  0  0  0  0  0  0  0  0  0  0
  -45.4521   58.6925   67.0315 C   0  0  0  0  0  0  0  0  0  0  0  0
  -45.6560   56.6250   65.7194 C   0  0  0  0  0  0  0  0  0  0  0  0
  -47.4710   55.5810   66.9225 O   0  0  0  0  0  0  0  0  0  0  0  0
  -47.1427   56.6199   65.9934 C   0  0  0  0  0  0  0  0  0  0  0  0
  -48.4263   55.5874   67.0905 H   0  0  0  0  0  0  0  0  0  0  0  0
  6  7  1  0  0  0
 15 16  1  0  0  0
 15 17  1  0  0  0
  7  8  1  0  0  0
  7  9  2  0  0  0
  9  5  1  0  0  0
  5  4  1  0  0  0
  4  1  1  0  0  0
  1  2  1  0  0  0
  1  3  2  0  0  0
  3 10  1  0  0  0
 10 11  1  0  0  0
 11 12  1  0  0  0
 12 13  1  0  0  0
 12 14  2  0  0  0
 14 16  1  0  0  0
M  END
> <minimizedAffinity>
-6.83177

> <CNNscore>
0.6084403992

> <CNNaffinity>
5.5821061134

> <CNN_VS>
3.3963787556

> <CNNaffinity_variance>
0.0937821940

$$$$
/media/chris/experiments/cd1a-new-docking/inputs/ligands/6nux_ligand.pdb


 17 16  0  0  0  0  0  0  0  0999 V2000
  -37.9429   57.2849   62.5879 C   0  0  0  0  0  0  0  0  0  0  0  0
  -38.0095   57.5513   64.0649 C   0  0  0  0  0  0  0  0  0  0  0  0
  -39.0235   56.8013   61.9594 C   0  0  0  0  0  0  0  0  0  0  0  0
  -36.6751   57.5618   61.8078 C   0  0  0  0  0  0  0  0  0  0  0  0
  -35.4504   57.0817   62.5796 C   0  0  0  0  0  0  0  0  0  0  0  0
  -32.7674   56.4278   61.8158 C   0  0  0  0  0  0  0  0  0  0  0  0
  -33.1164   57.8301   62.2112 C   0  0  0  0  0  0  0  0  0  0  0  0
  -32.0538   58.8876   62.2075 C   0  0  0  0  0  0  0  0  0  0  0  0
  -34.3708   58.1393   62.5714 C   0  0  0  0  0  0  0  0  0  0  0  0
  -40.2938   56.5283   62.7315 C   0  0  0  0  0  0  0  0  0  0  0  0
  -41.4079   57.4518   62.2539 C   0  0  0  0  0  0  0  0  0  0  0  0
  -41.3588   58.7599   63.0132 C   0  0  0  0  0  0  0  0  0  0  0  0
  -41.0791   60.0345   62.2790 C   0  0  0  0  0  0  0  0  0  0  0  0
  -41.5746   58.7864   64.3368 C   0  0  0  0  0  0  0  0  0  0  0  0
  -40.3122   60.1808   65.8511 O   0  0  0  0  0  0  0  0  0  0  0  0
  -41.5344   60.0840   65.1113 C   0  0  0  0  0  0  0  0  0  0  0  0
  -40.2976   61.0164   66.3435 H   0  0  0  0  0  0  0  0  0  0  0  0
  6  7  1  0  0  0
 15 16  1  0  0  0
 15 17  1  0  0  0
  7  8  1  0  0  0
  7  9  2  0  0  0
  9  5  1  0  0  0
  5  4  1  0  0  0
  4  1  1  0  0  0
  1  2  1  0  0  0
  1  3  2  0  0  0
  3 10  1  0  0  0
 10 11  1  0  0  0
 11 12  1  0  0  0
 12 13  1  0  0  0
 12 14  2  0  0  0
 14 16  1  0  0  0
M  END
> <minimizedAffinity>
-6.54548

> <CNNscore>
0.5945999026

> <CNNaffinity>
5.5618510246

> <CNN_VS>
3.3070759773

> <CNNaffinity_variance>
0.0306165367

$$$$
/media/chris/experiments/cd1a-new-docking/inputs/ligands/6nux_ligand.pdb


 17 16  0  0  0  0  0  0  0  0999 V2000
  -38.2109   58.3029   61.6472 C   0  0  0  0  0  0  0  0  0  0  0  0
  -37.2583   57.2617   62.1623 C   0  0  0  0  0  0  0  0  0  0  0  0
  -38.0519   59.5801   62.0216 C   0  0  0  0  0  0  0  0  0  0  0  0
  -39.3385   57.9245   60.7101 C   0  0  0  0  0  0  0  0  0  0  0  0
  -40.6692   57.8859   61.4544 C   0  0  0  0  0  0  0  0  0  0  0  0
  -40.6131   56.9040   64.1456 C   0  0  0  0  0  0  0  0  0  0  0  0
  -41.0366   56.0041   63.0251 C   0  0  0  0  0  0  0  0  0  0  0  0
  -41.4278   54.5872   63.3198 C   0  0  0  0  0  0  0  0  0  0  0  0
  -41.0620   56.4597   61.7639 C   0  0  0  0  0  0  0  0  0  0  0  0
  -36.9248   59.9650   62.9521 C   0  0  0  0  0  0  0  0  0  0  0  0
  -37.0363   61.4364   63.3322 C   0  0  0  0  0  0  0  0  0  0  0  0
  -36.9582   61.5914   64.8356 C   0  0  0  0  0  0  0  0  0  0  0  0
  -37.6422   60.5965   65.7210 C   0  0  0  0  0  0  0  0  0  0  0  0
  -36.2720   62.6073   65.3797 C   0  0  0  0  0  0  0  0  0  0  0  0
  -36.9242   63.9255   67.2951 O   0  0  0  0  0  0  0  0  0  0  0  0
  -36.1789   62.7757   66.8791 C   0  0  0  0  0  0  0  0  0  0  0  0
  -36.8572   64.0233   68.2578 H   0  0  0  0  0  0  0  0  0  0  0  0
  6  7  1  0  0  0
 15 16  1  0  0  0
 15 17  1  0  0  0
  7  8  1  0  0  0
  7  9  2  0  0  0
  9  5  1  0  0  0
  5  4  1  0  0  0
  4  1  1  0  0  0
  1  2  1  0  0  0
  1  3  2  0  0  0
  3 10  1  0  0  0
 10 11  1  0  0  0
 11 12  1  0  0  0
 12 13  1  0  0  0
 12 14  2  0  0  0
 14 16  1  0  0  0
M  END
> <minimizedAffinity>
-6.52336

> <CNNscore>
0.5679849982

> <CNNaffinity>
5.3832426071

> <CNN_VS>
3.0576009750

> <CNNaffinity_variance>
0.0691356882

$$$$
/media/chris/experiments/cd1a-new-docking/inputs/ligands/6nux_ligand.pdb


 17 16  0  0  0  0  0  0  0  0999 V2000
  -34.4988   58.3079   63.1759 C   0  0  0  0  0  0  0  0  0  0  0  0
  -33.1078   58.8230   62.9379 C   0  0  0  0  0  0  0  0  0  0  0  0
  -35.2116   58.7938   64.2018 C   0  0  0  0  0  0  0  0  0  0  0  0
  -35.1002   57.2553   62.2687 C   0  0  0  0  0  0  0  0  0  0  0  0
  -36.5851   57.0716   62.5649 C   0  0  0  0  0  0  0  0  0  0  0  0
  -39.3920   56.5397   62.3471 C   0  0  0  0  0  0  0  0  0  0  0  0
  -38.7382   57.5206   61.4223 C   0  0  0  0  0  0  0  0  0  0  0  0
  -39.5602   58.2195   60.3815 C   0  0  0  0  0  0  0  0  0  0  0  0
  -37.4241   57.7705   61.5200 C   0  0  0  0  0  0  0  0  0  0  0  0
  -34.6190   59.8488   65.1074 C   0  0  0  0  0  0  0  0  0  0  0  0
  -35.5253   61.0731   65.1514 C   0  0  0  0  0  0  0  0  0  0  0  0
  -35.3406   61.9007   63.8979 C   0  0  0  0  0  0  0  0  0  0  0  0
  -36.5276   62.2395   63.0504 C   0  0  0  0  0  0  0  0  0  0  0  0
  -34.1233   62.3412   63.5471 C   0  0  0  0  0  0  0  0  0  0  0  0
  -33.5395   64.5076   62.6542 O   0  0  0  0  0  0  0  0  0  0  0  0
  -33.9201   63.1730   62.3013 C   0  0  0  0  0  0  0  0  0  0  0  0
  -33.4120   65.0314   61.8478 H   0  0  0  0  0  0  0  0  0  0  0  0
  6  7  1  0  0  0
 15 16  1  0  0  0
 15 17  1  0  0  0
  7  8  1  0  0  0
  7  9  2  0  0  0
  9  5  1  0  0  0
  5  4  1  0  0  0
  4  1  1  0  0  0
  1  2  1  0  0  0
  1  3  2  0  0  0
  3 10  1  0  0  0
 10 11  1  0  0  0
 11 12  1  0  0  0
 12 13  1  0  0  0
 12 14  2  0  0  0
 14 16  1  0  0  0
M  END
> <minimizedAffinity>
-6.68403

> <CNNscore>
0.5295701027

> <CNNaffinity>
5.1857261658

> <CNN_VS>
2.7462055683

> <CNNaffinity_variance>
0.1124358177

$$$$
/media/chris/experiments/cd1a-new-docking/inputs/ligands/6nux_ligand.pdb


 17 16  0  0  0  0  0  0  0  0999 V2000
  -41.5163   56.3594   63.4207 C   0  0  0  0  0  0  0  0  0  0  0  0
  -42.0174   56.6715   62.0393 C   0  0  0  0  0  0  0  0  0  0  0  0
  -40.3044   56.7947   63.7927 C   0  0  0  0  0  0  0  0  0  0  0  0
  -42.3660   55.5670   64.3917 C   0  0  0  0  0  0  0  0  0  0  0  0
  -43.5216   56.4144   64.9140 C   0  0  0  0  0  0  0  0  0  0  0  0
  -43.3418   59.2737   64.8731 C   0  0  0  0  0  0  0  0  0  0  0  0
  -43.0213   58.5176   66.1262 C   0  0  0  0  0  0  0  0  0  0  0  0
  -42.6037   59.2651   67.3568 C   0  0  0  0  0  0  0  0  0  0  0  0
  -43.1023   57.1790   66.1484 C   0  0  0  0  0  0  0  0  0  0  0  0
  -39.4539   57.5911   62.8300 C   0  0  0  0  0  0  0  0  0  0  0  0
  -38.3103   56.7319   62.3044 C   0  0  0  0  0  0  0  0  0  0  0  0
  -36.9955   57.2073   62.8836 C   0  0  0  0  0  0  0  0  0  0  0  0
  -36.8173   57.2680   64.3689 C   0  0  0  0  0  0  0  0  0  0  0  0
  -35.9860   57.5640   62.0757 C   0  0  0  0  0  0  0  0  0  0  0  0
  -34.6579   59.4639   62.7525 O   0  0  0  0  0  0  0  0  0  0  0  0
  -34.6639   58.0367   62.6359 C   0  0  0  0  0  0  0  0  0  0  0  0
  -33.8057   59.7554   63.1125 H   0  0  0  0  0  0  0  0  0  0  0  0
  6  7  1  0  0  0
 15 16  1  0  0  0
 15 17  1  0  0  0
  7  8  1  0  0  0
  7  9  2  0  0  0
  9  5  1  0  0  0
  5  4  1  0  0  0
  4  1  1  0  0  0
  1  2  1  0  0  0
  1  3  2  0  0  0
  3 10  1  0  0  0
 10 11  1  0  0  0
 11 12  1  0  0  0
 12 13  1  0  0  0
 12 14  2  0  0  0
 14 16  1  0  0  0
M  END
> <minimizedAffinity>
-6.52654

> <CNNscore>
0.5055022836

> <CNNaffinity>
5.5743093491

> <CNN_VS>
2.8178260326

> <CNNaffinity_variance>
0.0236491710

$$$$
