/media/chris/experiments/cd1a-new-docking/inputs/ligands/6nux_ligand.pdb


 17 16  0  0  0  0  0  0  0  0999 V2000
  -49.4821   58.2215   62.4876 C   0  0  0  0  0  0  0  0  0  0  0  0
  -49.4296   59.7053   62.2586 C   0  0  0  0  0  0  0  0  0  0  0  0
  -49.6289   57.7553   63.7357 C   0  0  0  0  0  0  0  0  0  0  0  0
  -49.3771   57.2549   61.3269 C   0  0  0  0  0  0  0  0  0  0  0  0
  -49.3858   58.0036   59.9982 C   0  0  0  0  0  0  0  0  0  0  0  0
  -46.9374   59.4072   59.5030 C   0  0  0  0  0  0  0  0  0  0  0  0
  -47.1991   58.0923   58.8343 C   0  0  0  0  0  0  0  0  0  0  0  0
  -46.1745   57.5171   57.9034 C   0  0  0  0  0  0  0  0  0  0  0  0
  -48.3450   57.4334   59.0621 C   0  0  0  0  0  0  0  0  0  0  0  0
  -49.7402   58.7152   64.8979 C   0  0  0  0  0  0  0  0  0  0  0  0
  -49.7196   57.9499   66.2155 C   0  0  0  0  0  0  0  0  0  0  0  0
  -48.2954   57.7936   66.7028 C   0  0  0  0  0  0  0  0  0  0  0  0
  -47.8093   56.4527   67.1576 C   0  0  0  0  0  0  0  0  0  0  0  0
  -47.4634   58.8454   66.7197 C   0  0  0  0  0  0  0  0  0  0  0  0
  -45.1457   58.6191   66.0805 O   0  0  0  0  0  0  0  0  0  0  0  0
  -46.0361   58.7077   67.1985 C   0  0  0  0  0  0  0  0  0  0  0  0
  -44.2339   58.5312   66.3995 H   0  0  0  0  0  0  0  0  0  0  0  0
  6  7  1  0  0  0
 15 16  1  0  0  0
 15 17  1  0  0  0
  7  8  1  0  0  0
  7  9  2  0  0  0
  9  5  1  0  0  0
  5  4  1  0  0  0
  4  1  1  0  0  0
  1  2  1  0  0  0
  1  3  2  0  0  0
  3 10  1  0  0  0
 10 11  1  0  0  0
 11 12  1  0  0  0
 12 13  1  0  0  0
 12 14  2  0  0  0
 14 16  1  0  0  0
M  END
> <minimizedAffinity>
-6.91876

> <CNNscore>
0.7545638680

> <CNNaffinity>
6.0435676575

> <CNN_VS>
4.5602579117

> <CNNaffinity_variance>
0.2712191045

$$$$
/media/chris/experiments/cd1a-new-docking/inputs/ligands/6nux_ligand.pdb


 17 16  0  0  0  0  0  0  0  0999 V2000
  -38.5892   57.6731   61.3055 C   0  0  0  0  0  0  0  0  0  0  0  0
  -39.5007   58.5530   60.4980 C   0  0  0  0  0  0  0  0  0  0  0  0
  -39.1162   56.6925   62.0520 C   0  0  0  0  0  0  0  0  0  0  0  0
  -37.0896   57.8803   61.2785 C   0  0  0  0  0  0  0  0  0  0  0  0
  -36.4225   57.1493   62.4391 C   0  0  0  0  0  0  0  0  0  0  0  0
  -34.8352   58.8060   64.1553 C   0  0  0  0  0  0  0  0  0  0  0  0
  -34.1783   57.9657   63.1032 C   0  0  0  0  0  0  0  0  0  0  0  0
  -32.6873   57.9989   62.9520 C   0  0  0  0  0  0  0  0  0  0  0  0
  -34.9184   57.1905   62.2966 C   0  0  0  0  0  0  0  0  0  0  0  0
  -40.6119   56.4770   62.0785 C   0  0  0  0  0  0  0  0  0  0  0  0
  -40.9952   55.5959   63.2613 C   0  0  0  0  0  0  0  0  0  0  0  0
  -41.8237   56.3867   64.2505 C   0  0  0  0  0  0  0  0  0  0  0  0
  -41.2948   57.6755   64.7989 C   0  0  0  0  0  0  0  0  0  0  0  0
  -43.0320   55.9462   64.6307 C   0  0  0  0  0  0  0  0  0  0  0  0
  -45.1895   56.1599   65.6941 O   0  0  0  0  0  0  0  0  0  0  0  0
  -43.8761   56.7246   65.6140 C   0  0  0  0  0  0  0  0  0  0  0  0
  -45.7214   56.6670   66.3273 H   0  0  0  0  0  0  0  0  0  0  0  0
  6  7  1  0  0  0
 15 16  1  0  0  0
 15 17  1  0  0  0
  7  8  1  0  0  0
  7  9  2  0  0  0
  9  5  1  0  0  0
  5  4  1  0  0  0
  4  1  1  0  0  0
  1  2  1  0  0  0
  1  3  2  0  0  0
  3 10  1  0  0  0
 10 11  1  0  0  0
 11 12  1  0  0  0
 12 13  1  0  0  0
 12 14  2  0  0  0
 14 16  1  0  0  0
M  END
> <minimizedAffinity>
-7.05488

> <CNNscore>
0.7324675918

> <CNNaffinity>
5.7909173965

> <CNN_VS>
4.2416591644

> <CNNaffinity_variance>
0.0215708613

$$$$
/media/chris/experiments/cd1a-new-docking/inputs/ligands/6nux_ligand.pdb


 17 16  0  0  0  0  0  0  0  0999 V2000
  -34.1314   58.4324   62.7653 C   0  0  0  0  0  0  0  0  0  0  0  0
  -32.6635   58.6874   62.5731 C   0  0  0  0  0  0  0  0  0  0  0  0
  -34.8707   59.3282   63.4344 C   0  0  0  0  0  0  0  0  0  0  0  0
  -34.7795   57.1825   62.2080 C   0  0  0  0  0  0  0  0  0  0  0  0
  -36.2581   57.1300   62.5779 C   0  0  0  0  0  0  0  0  0  0  0  0
  -39.0809   56.6621   62.4266 C   0  0  0  0  0  0  0  0  0  0  0  0
  -38.4166   57.5784   61.4449 C   0  0  0  0  0  0  0  0  0  0  0  0
  -39.2363   58.2462   60.3822 C   0  0  0  0  0  0  0  0  0  0  0  0
  -37.0951   57.7981   61.5114 C   0  0  0  0  0  0  0  0  0  0  0  0
  -34.2308   60.5805   63.9881 C   0  0  0  0  0  0  0  0  0  0  0  0
  -35.1848   61.7613   63.8548 C   0  0  0  0  0  0  0  0  0  0  0  0
  -35.1241   62.6207   65.0989 C   0  0  0  0  0  0  0  0  0  0  0  0
  -33.8059   63.1493   65.5724 C   0  0  0  0  0  0  0  0  0  0  0  0
  -36.2439   62.9203   65.7735 C   0  0  0  0  0  0  0  0  0  0  0  0
  -36.4095   62.9765   68.1820 O   0  0  0  0  0  0  0  0  0  0  0  0
  -36.2037   63.7812   67.0156 C   0  0  0  0  0  0  0  0  0  0  0  0
  -36.3817   63.5389   68.9718 H   0  0  0  0  0  0  0  0  0  0  0  0
  6  7  1  0  0  0
 15 16  1  0  0  0
 15 17  1  0  0  0
  7  8  1  0  0  0
  7  9  2  0  0  0
  9  5  1  0  0  0
  5  4  1  0  0  0
  4  1  1  0  0  0
  1  2  1  0  0  0
  1  3  2  0  0  0
  3 10  1  0  0  0
 10 11  1  0  0  0
 11 12  1  0  0  0
 12 13  1  0  0  0
 12 14  2  0  0  0
 14 16  1  0  0  0
M  END
> <minimizedAffinity>
-6.97761

> <CNNscore>
0.7077929974

> <CNNaffinity>
5.4671216011

> <CNN_VS>
3.8695902824

> <CNNaffinity_variance>
0.0656194538

$$$$
/media/chris/experiments/cd1a-new-docking/inputs/ligands/6nux_ligand.pdb


 17 16  0  0  0  0  0  0  0  0999 V2000
  -41.4892   56.5861   63.7381 C   0  0  0  0  0  0  0  0  0  0  0  0
  -41.6005   55.1319   63.3777 C   0  0  0  0  0  0  0  0  0  0  0  0
  -42.3814   57.1227   64.5823 C   0  0  0  0  0  0  0  0  0  0  0  0
  -40.3812   57.4434   63.1635 C   0  0  0  0  0  0  0  0  0  0  0  0
  -39.6112   56.6822   62.0894 C   0  0  0  0  0  0  0  0  0  0  0  0
  -37.9448   58.4460   60.5657 C   0  0  0  0  0  0  0  0  0  0  0  0
  -37.3476   57.5852   61.6367 C   0  0  0  0  0  0  0  0  0  0  0  0
  -35.8741   57.6500   61.9042 C   0  0  0  0  0  0  0  0  0  0  0  0
  -38.1243   56.7567   62.3505 C   0  0  0  0  0  0  0  0  0  0  0  0
  -43.4862   56.2707   65.1636 C   0  0  0  0  0  0  0  0  0  0  0  0
  -43.9542   56.8518   66.4923 C   0  0  0  0  0  0  0  0  0  0  0  0
  -45.3017   57.5190   66.3212 C   0  0  0  0  0  0  0  0  0  0  0  0
  -46.4838   56.7059   65.8935 C   0  0  0  0  0  0  0  0  0  0  0  0
  -45.4460   58.8309   66.5601 C   0  0  0  0  0  0  0  0  0  0  0  0
  -46.8090   60.2759   65.1871 O   0  0  0  0  0  0  0  0  0  0  0  0
  -46.7850   59.5139   66.3991 C   0  0  0  0  0  0  0  0  0  0  0  0
  -47.6720   60.7092   65.0945 H   0  0  0  0  0  0  0  0  0  0  0  0
  6  7  1  0  0  0
 15 16  1  0  0  0
 15 17  1  0  0  0
  7  8  1  0  0  0
  7  9  2  0  0  0
  9  5  1  0  0  0
  5  4  1  0  0  0
  4  1  1  0  0  0
  1  2  1  0  0  0
  1  3  2  0  0  0
  3 10  1  0  0  0
 10 11  1  0  0  0
 11 12  1  0  0  0
 12 13  1  0  0  0
 12 14  2  0  0  0
 14 16  1  0  0  0
M  END
> <minimizedAffinity>
-6.61424

> <CNNscore>
0.6500530243

> <CNNaffinity>
5.6728043556

> <CNN_VS>
3.6876237392

> <CNNaffinity_variance>
0.2619397640

$$$$
/media/chris/experiments/cd1a-new-docking/inputs/ligands/6nux_ligand.pdb


 17 16  0  0  0  0  0  0  0  0999 V2000
  -37.7397   57.3513   63.8594 C   0  0  0  0  0  0  0  0  0  0  0  0
  -38.3154   56.9377   62.5348 C   0  0  0  0  0  0  0  0  0  0  0  0
  -38.5660   57.7365   64.8421 C   0  0  0  0  0  0  0  0  0  0  0  0
  -36.2439   57.3314   64.0936 C   0  0  0  0  0  0  0  0  0  0  0  0
  -35.4919   57.2164   62.7717 C   0  0  0  0  0  0  0  0  0  0  0  0
  -32.9108   56.4634   61.7815 C   0  0  0  0  0  0  0  0  0  0  0  0
  -33.1575   57.8653   62.2487 C   0  0  0  0  0  0  0  0  0  0  0  0
  -32.0462   58.8701   62.1977 C   0  0  0  0  0  0  0  0  0  0  0  0
  -34.3639   58.2208   62.7149 C   0  0  0  0  0  0  0  0  0  0  0  0
  -40.0604   57.7530   64.6164 C   0  0  0  0  0  0  0  0  0  0  0  0
  -40.6999   58.8836   65.4132 C   0  0  0  0  0  0  0  0  0  0  0  0
  -42.0252   58.4299   65.9859 C   0  0  0  0  0  0  0  0  0  0  0  0
  -42.6634   59.2129   67.0909 C   0  0  0  0  0  0  0  0  0  0  0  0
  -42.6363   57.3380   65.5031 C   0  0  0  0  0  0  0  0  0  0  0  0
  -45.0059   57.0982   65.1047 O   0  0  0  0  0  0  0  0  0  0  0  0
  -43.9627   56.8722   66.0592 C   0  0  0  0  0  0  0  0  0  0  0  0
  -45.8512   56.7958   65.4720 H   0  0  0  0  0  0  0  0  0  0  0  0
  6  7  1  0  0  0
 15 16  1  0  0  0
 15 17  1  0  0  0
  7  8  1  0  0  0
  7  9  2  0  0  0
  9  5  1  0  0  0
  5  4  1  0  0  0
  4  1  1  0  0  0
  1  2  1  0  0  0
  1  3  2  0  0  0
  3 10  1  0  0  0
 10 11  1  0  0  0
 11 12  1  0  0  0
 12 13  1  0  0  0
 12 14  2  0  0  0
 14 16  1  0  0  0
M  END
> <minimizedAffinity>
-6.64228

> <CNNscore>
0.6390950084

> <CNNaffinity>
5.5320134163

> <CNN_VS>
3.5354821682

> <CNNaffinity_variance>
0.0348762944

$$$$
/media/chris/experiments/cd1a-new-docking/inputs/ligands/6nux_ligand.pdb


 17 16  0  0  0  0  0  0  0  0999 V2000
  -38.4170   57.5608   61.3721 C   0  0  0  0  0  0  0  0  0  0  0  0
  -39.4426   58.2195   60.4939 C   0  0  0  0  0  0  0  0  0  0  0  0
  -38.8088   56.6304   62.2538 C   0  0  0  0  0  0  0  0  0  0  0  0
  -36.9531   57.9330   61.2660 C   0  0  0  0  0  0  0  0  0  0  0  0
  -36.1326   57.2051   62.3257 C   0  0  0  0  0  0  0  0  0  0  0  0
  -34.5789   58.8117   64.1186 C   0  0  0  0  0  0  0  0  0  0  0  0
  -33.9302   58.1675   62.9316 C   0  0  0  0  0  0  0  0  0  0  0  0
  -32.4654   58.3706   62.6863 C   0  0  0  0  0  0  0  0  0  0  0  0
  -34.6549   57.4165   62.0890 C   0  0  0  0  0  0  0  0  0  0  0  0
  -40.2678   56.2504   62.3605 C   0  0  0  0  0  0  0  0  0  0  0  0
  -40.7409   56.3810   63.8031 C   0  0  0  0  0  0  0  0  0  0  0  0
  -40.9172   57.8408   64.1614 C   0  0  0  0  0  0  0  0  0  0  0  0
  -41.8827   58.6837   63.3877 C   0  0  0  0  0  0  0  0  0  0  0  0
  -40.2224   58.3811   65.1734 C   0  0  0  0  0  0  0  0  0  0  0  0
  -39.1730   60.3438   66.1103 O   0  0  0  0  0  0  0  0  0  0  0  0
  -40.3885   59.8359   65.5490 C   0  0  0  0  0  0  0  0  0  0  0  0
  -39.2914   61.2770   66.3472 H   0  0  0  0  0  0  0  0  0  0  0  0
  6  7  1  0  0  0
 15 16  1  0  0  0
 15 17  1  0  0  0
  7  8  1  0  0  0
  7  9  2  0  0  0
  9  5  1  0  0  0
  5  4  1  0  0  0
  4  1  1  0  0  0
  1  2  1  0  0  0
  1  3  2  0  0  0
  3 10  1  0  0  0
 10 11  1  0  0  0
 11 12  1  0  0  0
 12 13  1  0  0  0
 12 14  2  0  0  0
 14 16  1  0  0  0
M  END
> <minimizedAffinity>
-6.86657

> <CNNscore>
0.6322014332

> <CNNaffinity>
5.6067881584

> <CNN_VS>
3.5446195602

> <CNNaffinity_variance>
0.0160284992

$$$$
/media/chris/experiments/cd1a-new-docking/inputs/ligands/6nux_ligand.pdb


 17 16  0  0  0  0  0  0  0  0999 V2000
  -49.6229   58.8613   64.2579 C   0  0  0  0  0  0  0  0  0  0  0  0
  -49.4690   60.3319   63.9923 C   0  0  0  0  0  0  0  0  0  0  0  0
  -49.4141   57.9894   63.2615 C   0  0  0  0  0  0  0  0  0  0  0  0
  -50.0040   58.3590   65.6346 C   0  0  0  0  0  0  0  0  0  0  0  0
  -48.9152   57.4525   66.1993 C   0  0  0  0  0  0  0  0  0  0  0  0
  -46.2323   57.3109   65.2036 C   0  0  0  0  0  0  0  0  0  0  0  0
  -46.5598   58.2081   66.3579 C   0  0  0  0  0  0  0  0  0  0  0  0
  -45.4760   59.0284   66.9900 C   0  0  0  0  0  0  0  0  0  0  0  0
  -47.8143   58.2753   66.8280 C   0  0  0  0  0  0  0  0  0  0  0  0
  -49.0278   58.4842   61.8866 C   0  0  0  0  0  0  0  0  0  0  0  0
  -47.5883   58.0946   61.5730 C   0  0  0  0  0  0  0  0  0  0  0  0
  -47.4939   57.5457   60.1659 C   0  0  0  0  0  0  0  0  0  0  0  0
  -46.1963   57.6251   59.4235 C   0  0  0  0  0  0  0  0  0  0  0  0
  -48.5615   56.9796   59.5840 C   0  0  0  0  0  0  0  0  0  0  0  0
  -48.2022   55.0184   58.2216 O   0  0  0  0  0  0  0  0  0  0  0  0
  -48.4852   56.4215   58.1811 C   0  0  0  0  0  0  0  0  0  0  0  0
  -48.1557   54.6717   57.3169 H   0  0  0  0  0  0  0  0  0  0  0  0
  6  7  1  0  0  0
 15 16  1  0  0  0
 15 17  1  0  0  0
  7  8  1  0  0  0
  7  9  2  0  0  0
  9  5  1  0  0  0
  5  4  1  0  0  0
  4  1  1  0  0  0
  1  2  1  0  0  0
  1  3  2  0  0  0
  3 10  1  0  0  0
 10 11  1  0  0  0
 11 12  1  0  0  0
 12 13  1  0  0  0
 12 14  2  0  0  0
 14 16  1  0  0  0
M  END
> <minimizedAffinity>
-6.40961

> <CNNscore>
0.6282575727

> <CNNaffinity>
6.0730123520

> <CNN_VS>
3.8154160976

> <CNNaffinity_variance>
0.1821848154

$$$$
/media/chris/experiments/cd1a-new-docking/inputs/ligands/6nux_ligand.pdb


 17 16  0  0  0  0  0  0  0  0999 V2000
  -48.1618   59.4750   61.6084 C   0  0  0  0  0  0  0  0  0  0  0  0
  -49.4021   60.2132   61.1918 C   0  0  0  0  0  0  0  0  0  0  0  0
  -48.2195   58.6293   62.6468 C   0  0  0  0  0  0  0  0  0  0  0  0
  -46.8570   59.6731   60.8662 C   0  0  0  0  0  0  0  0  0  0  0  0
  -46.9762   59.1872   59.4254 C   0  0  0  0  0  0  0  0  0  0  0  0
  -48.9721   57.2064   58.8754 C   0  0  0  0  0  0  0  0  0  0  0  0
  -47.5426   56.8008   59.0674 C   0  0  0  0  0  0  0  0  0  0  0  0
  -47.1636   55.3536   58.9728 C   0  0  0  0  0  0  0  0  0  0  0  0
  -46.6060   57.7252   59.3271 C   0  0  0  0  0  0  0  0  0  0  0  0
  -49.5204   58.4229   63.3880 C   0  0  0  0  0  0  0  0  0  0  0  0
  -49.5178   59.2206   64.6865 C   0  0  0  0  0  0  0  0  0  0  0  0
  -48.6074   58.5605   65.6993 C   0  0  0  0  0  0  0  0  0  0  0  0
  -47.4415   59.3181   66.2544 C   0  0  0  0  0  0  0  0  0  0  0  0
  -48.8442   57.3060   66.1103 C   0  0  0  0  0  0  0  0  0  0  0  0
  -47.5164   55.3580   66.6336 O   0  0  0  0  0  0  0  0  0  0  0  0
  -47.9488   56.6317   67.1247 C   0  0  0  0  0  0  0  0  0  0  0  0
  -46.9432   54.9352   67.2920 H   0  0  0  0  0  0  0  0  0  0  0  0
  6  7  1  0  0  0
 15 16  1  0  0  0
 15 17  1  0  0  0
  7  8  1  0  0  0
  7  9  2  0  0  0
  9  5  1  0  0  0
  5  4  1  0  0  0
  4  1  1  0  0  0
  1  2  1  0  0  0
  1  3  2  0  0  0
  3 10  1  0  0  0
 10 11  1  0  0  0
 11 12  1  0  0  0
 12 13  1  0  0  0
 12 14  2  0  0  0
 14 16  1  0  0  0
M  END
> <minimizedAffinity>
-6.66975

> <CNNscore>
0.5846516490

> <CNNaffinity>
5.9261732101

> <CNN_VS>
3.4647469521

> <CNNaffinity_variance>
0.1212893501

$$$$
/media/chris/experiments/cd1a-new-docking/inputs/ligands/6nux_ligand.pdb


 17 16  0  0  0  0  0  0  0  0999 V2000
  -35.9564   57.9598   62.3383 C   0  0  0  0  0  0  0  0  0  0  0  0
  -34.6803   57.1811   62.1901 C   0  0  0  0  0  0  0  0  0  0  0  0
  -35.9718   59.0521   63.1151 C   0  0  0  0  0  0  0  0  0  0  0  0
  -37.2156   57.5269   61.6174 C   0  0  0  0  0  0  0  0  0  0  0  0
  -38.1913   56.8651   62.5849 C   0  0  0  0  0  0  0  0  0  0  0  0
  -40.6165   57.0241   64.1024 C   0  0  0  0  0  0  0  0  0  0  0  0
  -40.6658   56.7288   62.6344 C   0  0  0  0  0  0  0  0  0  0  0  0
  -41.9901   56.5146   61.9654 C   0  0  0  0  0  0  0  0  0  0  0  0
  -39.5324   56.6515   61.9212 C   0  0  0  0  0  0  0  0  0  0  0  0
  -34.7167   59.4926   63.8327 C   0  0  0  0  0  0  0  0  0  0  0  0
  -35.0510   59.9386   65.2510 C   0  0  0  0  0  0  0  0  0  0  0  0
  -35.1451   61.4477   65.3119 C   0  0  0  0  0  0  0  0  0  0  0  0
  -34.5795   62.2724   64.1978 C   0  0  0  0  0  0  0  0  0  0  0  0
  -35.7408   62.0503   66.3515 C   0  0  0  0  0  0  0  0  0  0  0  0
  -36.9200   63.9321   67.3002 O   0  0  0  0  0  0  0  0  0  0  0  0
  -35.8486   63.5563   66.4277 C   0  0  0  0  0  0  0  0  0  0  0  0
  -36.9795   64.8994   67.3412 H   0  0  0  0  0  0  0  0  0  0  0  0
  6  7  1  0  0  0
 15 16  1  0  0  0
 15 17  1  0  0  0
  7  8  1  0  0  0
  7  9  2  0  0  0
  9  5  1  0  0  0
  5  4  1  0  0  0
  4  1  1  0  0  0
  1  2  1  0  0  0
  1  3  2  0  0  0
  3 10  1  0  0  0
 10 11  1  0  0  0
 11 12  1  0  0  0
 12 13  1  0  0  0
 12 14  2  0  0  0
 14 16  1  0  0  0
M  END
> <minimizedAffinity>
-6.64026

> <CNNscore>
0.5793127418

> <CNNaffinity>
5.3901462555

> <CNN_VS>
3.1225802898

> <CNNaffinity_variance>
0.0517608337

$$$$
