/media/chris/experiments/cd1a-new-docking/inputs/ligands/6nux_ligand.pdb


 17 16  0  0  0  0  0  0  0  0999 V2000
  -38.4885   57.5504   61.3649 C   0  0  0  0  0  0  0  0  0  0  0  0
  -39.5310   58.2773   60.5640 C   0  0  0  0  0  0  0  0  0  0  0  0
  -38.8691   56.5898   62.2188 C   0  0  0  0  0  0  0  0  0  0  0  0
  -37.0203   57.8879   61.2122 C   0  0  0  0  0  0  0  0  0  0  0  0
  -36.1985   57.2372   62.3199 C   0  0  0  0  0  0  0  0  0  0  0  0
  -34.5937   58.3423   64.4207 C   0  0  0  0  0  0  0  0  0  0  0  0
  -33.9761   58.0138   63.0958 C   0  0  0  0  0  0  0  0  0  0  0  0
  -32.5155   58.2692   62.8749 C   0  0  0  0  0  0  0  0  0  0  0  0
  -34.7248   57.4983   62.1094 C   0  0  0  0  0  0  0  0  0  0  0  0
  -40.3325   56.2443   62.3715 C   0  0  0  0  0  0  0  0  0  0  0  0
  -40.7564   56.3842   63.8285 C   0  0  0  0  0  0  0  0  0  0  0  0
  -40.9211   57.8463   64.1829 C   0  0  0  0  0  0  0  0  0  0  0  0
  -41.9162   58.6827   63.4401 C   0  0  0  0  0  0  0  0  0  0  0  0
  -40.1897   58.3945   65.1645 C   0  0  0  0  0  0  0  0  0  0  0  0
  -39.1517   60.3295   66.1694 O   0  0  0  0  0  0  0  0  0  0  0  0
  -40.3437   59.8518   65.5358 C   0  0  0  0  0  0  0  0  0  0  0  0
  -39.2621   61.2644   66.4029 H   0  0  0  0  0  0  0  0  0  0  0  0
  6  7  1  0  0  0
 15 16  1  0  0  0
 15 17  1  0  0  0
  7  8  1  0  0  0
  7  9  2  0  0  0
  9  5  1  0  0  0
  5  4  1  0  0  0
  4  1  1  0  0  0
  1  2  1  0  0  0
  1  3  2  0  0  0
  3 10  1  0  0  0
 10 11  1  0  0  0
 11 12  1  0  0  0
 12 13  1  0  0  0
 12 14  2  0  0  0
 14 16  1  0  0  0
M  END
> <minimizedAffinity>
-6.88356

> <CNNscore>
0.6489245296

> <CNNaffinity>
5.6117768288

> <CNN_VS>
3.6416196823

> <CNNaffinity_variance>
0.0223910175

$$$$
/media/chris/experiments/cd1a-new-docking/inputs/ligands/6nux_ligand.pdb


 17 16  0  0  0  0  0  0  0  0999 V2000
  -34.8090   58.1674   63.3709 C   0  0  0  0  0  0  0  0  0  0  0  0
  -33.3523   58.1465   63.7374 C   0  0  0  0  0  0  0  0  0  0  0  0
  -35.6055   59.1058   63.9018 C   0  0  0  0  0  0  0  0  0  0  0  0
  -35.3798   57.1474   62.4084 C   0  0  0  0  0  0  0  0  0  0  0  0
  -36.6764   57.6570   61.7878 C   0  0  0  0  0  0  0  0  0  0  0  0
  -39.2995   58.0508   60.7042 C   0  0  0  0  0  0  0  0  0  0  0  0
  -39.0883   57.0871   61.8318 C   0  0  0  0  0  0  0  0  0  0  0  0
  -40.2569   56.3330   62.3912 C   0  0  0  0  0  0  0  0  0  0  0  0
  -37.8621   56.9018   62.3429 C   0  0  0  0  0  0  0  0  0  0  0  0
  -35.0404   60.1303   64.8586 C   0  0  0  0  0  0  0  0  0  0  0  0
  -34.7418   61.4299   64.1209 C   0  0  0  0  0  0  0  0  0  0  0  0
  -34.6993   62.5839   65.0991 C   0  0  0  0  0  0  0  0  0  0  0  0
  -33.7084   63.6887   64.9011 C   0  0  0  0  0  0  0  0  0  0  0  0
  -35.5499   62.6287   66.1351 C   0  0  0  0  0  0  0  0  0  0  0  0
  -36.6411   63.6845   68.0128 O   0  0  0  0  0  0  0  0  0  0  0  0
  -35.5256   63.7756   67.1197 C   0  0  0  0  0  0  0  0  0  0  0  0
  -36.6151   64.4247   68.6391 H   0  0  0  0  0  0  0  0  0  0  0  0
  6  7  1  0  0  0
 15 16  1  0  0  0
 15 17  1  0  0  0
  7  8  1  0  0  0
  7  9  2  0  0  0
  9  5  1  0  0  0
  5  4  1  0  0  0
  4  1  1  0  0  0
  1  2  1  0  0  0
  1  3  2  0  0  0
  3 10  1  0  0  0
 10 11  1  0  0  0
 11 12  1  0  0  0
 12 13  1  0  0  0
 12 14  2  0  0  0
 14 16  1  0  0  0
M  END
> <minimizedAffinity>
-7.06700

> <CNNscore>
0.6332433820

> <CNNaffinity>
5.3437728882

> <CNN_VS>
3.3839087486

> <CNNaffinity_variance>
0.0507924557

$$$$
/media/chris/experiments/cd1a-new-docking/inputs/ligands/6nux_ligand.pdb


 17 16  0  0  0  0  0  0  0  0999 V2000
  -49.5672   58.8312   62.3958 C   0  0  0  0  0  0  0  0  0  0  0  0
  -49.6734   60.2326   61.8651 C   0  0  0  0  0  0  0  0  0  0  0  0
  -49.5403   58.6320   63.7211 C   0  0  0  0  0  0  0  0  0  0  0  0
  -49.4964   57.6493   61.4520 C   0  0  0  0  0  0  0  0  0  0  0  0
  -49.4618   58.1182   60.0011 C   0  0  0  0  0  0  0  0  0  0  0  0
  -47.0112   59.4818   59.4141 C   0  0  0  0  0  0  0  0  0  0  0  0
  -47.2063   58.0629   58.9745 C   0  0  0  0  0  0  0  0  0  0  0  0
  -46.1140   57.3623   58.2240 C   0  0  0  0  0  0  0  0  0  0  0  0
  -48.3531   57.4221   59.2458 C   0  0  0  0  0  0  0  0  0  0  0  0
  -49.6165   59.8072   64.6684 C   0  0  0  0  0  0  0  0  0  0  0  0
  -49.7717   59.3168   66.1029 C   0  0  0  0  0  0  0  0  0  0  0  0
  -48.5903   58.4520   66.4863 C   0  0  0  0  0  0  0  0  0  0  0  0
  -47.2309   59.0663   66.6132 C   0  0  0  0  0  0  0  0  0  0  0  0
  -48.7550   57.1423   66.7236 C   0  0  0  0  0  0  0  0  0  0  0  0
  -47.9667   54.8839   67.0546 O   0  0  0  0  0  0  0  0  0  0  0  0
  -47.5880   56.2637   67.1124 C   0  0  0  0  0  0  0  0  0  0  0  0
  -47.2108   54.3304   67.3058 H   0  0  0  0  0  0  0  0  0  0  0  0
  6  7  1  0  0  0
 15 16  1  0  0  0
 15 17  1  0  0  0
  7  8  1  0  0  0
  7  9  2  0  0  0
  9  5  1  0  0  0
  5  4  1  0  0  0
  4  1  1  0  0  0
  1  2  1  0  0  0
  1  3  2  0  0  0
  3 10  1  0  0  0
 10 11  1  0  0  0
 11 12  1  0  0  0
 12 13  1  0  0  0
 12 14  2  0  0  0
 14 16  1  0  0  0
M  END
> <minimizedAffinity>
-7.20125

> <CNNscore>
0.6209046841

> <CNNaffinity>
5.9811224937

> <CNN_VS>
3.7137069702

> <CNNaffinity_variance>
0.2869113684

$$$$
/media/chris/experiments/cd1a-new-docking/inputs/ligands/6nux_ligand.pdb


 17 16  0  0  0  0  0  0  0  0999 V2000
  -49.9773   58.5837   61.1508 C   0  0  0  0  0  0  0  0  0  0  0  0
  -49.7139   60.0556   61.0060 C   0  0  0  0  0  0  0  0  0  0  0  0
  -49.6096   57.9594   62.2785 C   0  0  0  0  0  0  0  0  0  0  0  0
  -50.6554   57.8060   60.0426 C   0  0  0  0  0  0  0  0  0  0  0  0
  -49.6782   56.8350   59.3882 C   0  0  0  0  0  0  0  0  0  0  0  0
  -47.2408   55.4393   58.8217 C   0  0  0  0  0  0  0  0  0  0  0  0
  -47.3314   56.9174   58.5944 C   0  0  0  0  0  0  0  0  0  0  0  0
  -46.1396   57.6616   58.0719 C   0  0  0  0  0  0  0  0  0  0  0  0
  -48.4702   57.5744   58.8605 C   0  0  0  0  0  0  0  0  0  0  0  0
  -48.9375   58.7314   63.3906 C   0  0  0  0  0  0  0  0  0  0  0  0
  -47.4467   58.4174   63.4220 C   0  0  0  0  0  0  0  0  0  0  0  0
  -47.0577   57.8821   64.7831 C   0  0  0  0  0  0  0  0  0  0  0  0
  -45.6139   57.6524   65.1056 C   0  0  0  0  0  0  0  0  0  0  0  0
  -47.9964   57.6226   65.7053 C   0  0  0  0  0  0  0  0  0  0  0  0
  -47.2948   58.1742   67.9492 O   0  0  0  0  0  0  0  0  0  0  0  0
  -47.6267   57.0922   67.0718 C   0  0  0  0  0  0  0  0  0  0  0  0
  -47.0596   57.8222   68.8219 H   0  0  0  0  0  0  0  0  0  0  0  0
  6  7  1  0  0  0
 15 16  1  0  0  0
 15 17  1  0  0  0
  7  8  1  0  0  0
  7  9  2  0  0  0
  9  5  1  0  0  0
  5  4  1  0  0  0
  4  1  1  0  0  0
  1  2  1  0  0  0
  1  3  2  0  0  0
  3 10  1  0  0  0
 10 11  1  0  0  0
 11 12  1  0  0  0
 12 13  1  0  0  0
 12 14  2  0  0  0
 14 16  1  0  0  0
M  END
> <minimizedAffinity>
-6.98546

> <CNNscore>
0.6014819145

> <CNNaffinity>
5.8820667267

> <CNN_VS>
3.5379567146

> <CNNaffinity_variance>
0.2079651803

$$$$
/media/chris/experiments/cd1a-new-docking/inputs/ligands/6nux_ligand.pdb


 17 16  0  0  0  0  0  0  0  0999 V2000
  -48.1776   59.4617   61.5236 C   0  0  0  0  0  0  0  0  0  0  0  0
  -49.4440   60.1434   61.0895 C   0  0  0  0  0  0  0  0  0  0  0  0
  -48.2043   58.6413   62.5833 C   0  0  0  0  0  0  0  0  0  0  0  0
  -46.8809   59.6879   60.7751 C   0  0  0  0  0  0  0  0  0  0  0  0
  -46.9856   59.1693   59.3447 C   0  0  0  0  0  0  0  0  0  0  0  0
  -48.9664   57.1699   58.8077 C   0  0  0  0  0  0  0  0  0  0  0  0
  -47.5386   56.7737   59.0289 C   0  0  0  0  0  0  0  0  0  0  0  0
  -47.1532   55.3262   58.9704 C   0  0  0  0  0  0  0  0  0  0  0  0
  -46.6089   57.7068   59.2826 C   0  0  0  0  0  0  0  0  0  0  0  0
  -49.4967   58.4068   63.3310 C   0  0  0  0  0  0  0  0  0  0  0  0
  -49.5068   59.2081   64.6272 C   0  0  0  0  0  0  0  0  0  0  0  0
  -48.5892   58.5631   65.6432 C   0  0  0  0  0  0  0  0  0  0  0  0
  -47.5442   59.3876   66.3285 C   0  0  0  0  0  0  0  0  0  0  0  0
  -48.7128   57.2613   65.9412 C   0  0  0  0  0  0  0  0  0  0  0  0
  -47.5901   55.2296   66.6067 O   0  0  0  0  0  0  0  0  0  0  0  0
  -47.8087   56.6007   66.9568 C   0  0  0  0  0  0  0  0  0  0  0  0
  -47.0092   54.8165   67.2646 H   0  0  0  0  0  0  0  0  0  0  0  0
  6  7  1  0  0  0
 15 16  1  0  0  0
 15 17  1  0  0  0
  7  8  1  0  0  0
  7  9  2  0  0  0
  9  5  1  0  0  0
  5  4  1  0  0  0
  4  1  1  0  0  0
  1  2  1  0  0  0
  1  3  2  0  0  0
  3 10  1  0  0  0
 10 11  1  0  0  0
 11 12  1  0  0  0
 12 13  1  0  0  0
 12 14  2  0  0  0
 14 16  1  0  0  0
M  END
> <minimizedAffinity>
-6.68031

> <CNNscore>
0.5808718204

> <CNNaffinity>
5.9283471107

> <CNN_VS>
3.4436097145

> <CNNaffinity_variance>
0.1246745437

$$$$
/media/chris/experiments/cd1a-new-docking/inputs/ligands/6nux_ligand.pdb


 17 16  0  0  0  0  0  0  0  0999 V2000
  -37.6572   57.2603   63.6520 C   0  0  0  0  0  0  0  0  0  0  0  0
  -38.6778   57.6807   64.6711 C   0  0  0  0  0  0  0  0  0  0  0  0
  -38.0694   56.7840   62.4688 C   0  0  0  0  0  0  0  0  0  0  0  0
  -36.1764   57.3747   63.9466 C   0  0  0  0  0  0  0  0  0  0  0  0
  -35.3579   57.2150   62.6697 C   0  0  0  0  0  0  0  0  0  0  0  0
  -32.6904   56.4838   61.9215 C   0  0  0  0  0  0  0  0  0  0  0  0
  -33.0138   57.9075   62.2576 C   0  0  0  0  0  0  0  0  0  0  0  0
  -31.9339   58.9459   62.2029 C   0  0  0  0  0  0  0  0  0  0  0  0
  -34.2610   58.2531   62.6103 C   0  0  0  0  0  0  0  0  0  0  0  0
  -39.5461   56.6728   62.1665 C   0  0  0  0  0  0  0  0  0  0  0  0
  -39.9163   57.5919   61.0088 C   0  0  0  0  0  0  0  0  0  0  0  0
  -40.1147   59.0056   61.5114 C   0  0  0  0  0  0  0  0  0  0  0  0
  -39.1671   60.0842   61.0869 C   0  0  0  0  0  0  0  0  0  0  0  0
  -41.1391   59.3004   62.3253 C   0  0  0  0  0  0  0  0  0  0  0  0
  -40.8200   60.8445   64.1543 O   0  0  0  0  0  0  0  0  0  0  0  0
  -41.3561   60.7074   62.8336 C   0  0  0  0  0  0  0  0  0  0  0  0
  -40.9649   61.7502   64.4697 H   0  0  0  0  0  0  0  0  0  0  0  0
  6  7  1  0  0  0
 15 16  1  0  0  0
 15 17  1  0  0  0
  7  8  1  0  0  0
  7  9  2  0  0  0
  9  5  1  0  0  0
  5  4  1  0  0  0
  4  1  1  0  0  0
  1  2  1  0  0  0
  1  3  2  0  0  0
  3 10  1  0  0  0
 10 11  1  0  0  0
 11 12  1  0  0  0
 12 13  1  0  0  0
 12 14  2  0  0  0
 14 16  1  0  0  0
M  END
> <minimizedAffinity>
-6.77224

> <CNNscore>
0.5739613771

> <CNNaffinity>
5.4857778549

> <CNN_VS>
3.1486246586

> <CNNaffinity_variance>
0.0567257777

$$$$
/media/chris/experiments/cd1a-new-docking/inputs/ligands/6nux_ligand.pdb


 17 16  0  0  0  0  0  0  0  0999 V2000
  -39.4528   57.3121   61.5434 C   0  0  0  0  0  0  0  0  0  0  0  0
  -39.0291   58.3017   60.4955 C   0  0  0  0  0  0  0  0  0  0  0  0
  -38.5230   56.7477   62.3266 C   0  0  0  0  0  0  0  0  0  0  0  0
  -40.9128   56.9538   61.7245 C   0  0  0  0  0  0  0  0  0  0  0  0
  -41.5144   57.7173   62.8997 C   0  0  0  0  0  0  0  0  0  0  0  0
  -40.3566   60.2779   63.4587 C   0  0  0  0  0  0  0  0  0  0  0  0
  -41.6349   60.1836   62.6831 C   0  0  0  0  0  0  0  0  0  0  0  0
  -42.3056   61.4358   62.2042 C   0  0  0  0  0  0  0  0  0  0  0  0
  -42.1809   58.9866   62.4214 C   0  0  0  0  0  0  0  0  0  0  0  0
  -37.0647   57.1056   62.1547 C   0  0  0  0  0  0  0  0  0  0  0  0
  -36.5700   57.8906   63.3635 C   0  0  0  0  0  0  0  0  0  0  0  0
  -35.0570   57.8890   63.3996 C   0  0  0  0  0  0  0  0  0  0  0  0
  -34.3445   58.2370   64.6695 C   0  0  0  0  0  0  0  0  0  0  0  0
  -34.3511   57.5677   62.3054 C   0  0  0  0  0  0  0  0  0  0  0  0
  -32.3290   58.7940   61.8171 O   0  0  0  0  0  0  0  0  0  0  0  0
  -32.8396   57.5558   62.3237 C   0  0  0  0  0  0  0  0  0  0  0  0
  -31.3594   58.7748   61.8336 H   0  0  0  0  0  0  0  0  0  0  0  0
  6  7  1  0  0  0
 15 16  1  0  0  0
 15 17  1  0  0  0
  7  8  1  0  0  0
  7  9  2  0  0  0
  9  5  1  0  0  0
  5  4  1  0  0  0
  4  1  1  0  0  0
  1  2  1  0  0  0
  1  3  2  0  0  0
  3 10  1  0  0  0
 10 11  1  0  0  0
 11 12  1  0  0  0
 12 13  1  0  0  0
 12 14  2  0  0  0
 14 16  1  0  0  0
M  END
> <minimizedAffinity>
-6.52310

> <CNNscore>
0.5158229470

> <CNNaffinity>
5.5431432724

> <CNN_VS>
2.8592805862

> <CNNaffinity_variance>
0.0835397691

$$$$
/media/chris/experiments/cd1a-new-docking/inputs/ligands/6nux_ligand.pdb


 17 16  0  0  0  0  0  0  0  0999 V2000
  -44.2996   58.4043   62.2856 C   0  0  0  0  0  0  0  0  0  0  0  0
  -43.8875   59.8013   62.6535 C   0  0  0  0  0  0  0  0  0  0  0  0
  -43.3635   57.4508   62.1794 C   0  0  0  0  0  0  0  0  0  0  0  0
  -45.7550   58.0656   62.0409 C   0  0  0  0  0  0  0  0  0  0  0  0
  -46.2739   58.7796   60.7971 C   0  0  0  0  0  0  0  0  0  0  0  0
  -46.3039   57.8981   58.0710 C   0  0  0  0  0  0  0  0  0  0  0  0
  -47.4847   57.6429   58.9571 C   0  0  0  0  0  0  0  0  0  0  0  0
  -48.6821   56.9268   58.4087 C   0  0  0  0  0  0  0  0  0  0  0  0
  -47.4750   58.0560   60.2332 C   0  0  0  0  0  0  0  0  0  0  0  0
  -41.9098   57.7813   62.4281 C   0  0  0  0  0  0  0  0  0  0  0  0
  -41.0157   56.7010   61.8318 C   0  0  0  0  0  0  0  0  0  0  0  0
  -39.6535   57.2752   61.5079 C   0  0  0  0  0  0  0  0  0  0  0  0
  -38.4400   56.7484   62.2089 C   0  0  0  0  0  0  0  0  0  0  0  0
  -39.5250   58.2446   60.5899 C   0  0  0  0  0  0  0  0  0  0  0  0
  -37.9766   60.0632   60.9454 O   0  0  0  0  0  0  0  0  0  0  0  0
  -38.1721   58.8270   60.2496 C   0  0  0  0  0  0  0  0  0  0  0  0
  -37.1063   60.4272   60.7195 H   0  0  0  0  0  0  0  0  0  0  0  0
  6  7  1  0  0  0
 15 16  1  0  0  0
 15 17  1  0  0  0
  7  8  1  0  0  0
  7  9  2  0  0  0
  9  5  1  0  0  0
  5  4  1  0  0  0
  4  1  1  0  0  0
  1  2  1  0  0  0
  1  3  2  0  0  0
  3 10  1  0  0  0
 10 11  1  0  0  0
 11 12  1  0  0  0
 12 13  1  0  0  0
 12 14  2  0  0  0
 14 16  1  0  0  0
M  END
> <minimizedAffinity>
-7.18545

> <CNNscore>
0.4716863930

> <CNNaffinity>
5.6416106224

> <CNN_VS>
2.6610710621

> <CNNaffinity_variance>
0.2893699706

$$$$
/media/chris/experiments/cd1a-new-docking/inputs/ligands/6nux_ligand.pdb


 17 16  0  0  0  0  0  0  0  0999 V2000
  -38.4910   57.2033   62.6859 C   0  0  0  0  0  0  0  0  0  0  0  0
  -39.0370   57.6883   63.9988 C   0  0  0  0  0  0  0  0  0  0  0  0
  -39.3013   57.1457   61.6197 C   0  0  0  0  0  0  0  0  0  0  0  0
  -37.0409   56.7872   62.5569 C   0  0  0  0  0  0  0  0  0  0  0  0
  -36.2373   57.8519   61.8176 C   0  0  0  0  0  0  0  0  0  0  0  0
  -34.4012   59.2555   63.5114 C   0  0  0  0  0  0  0  0  0  0  0  0
  -33.9106   58.1598   62.6150 C   0  0  0  0  0  0  0  0  0  0  0  0
  -32.4542   57.8045   62.6074 C   0  0  0  0  0  0  0  0  0  0  0  0
  -34.7669   57.5020   61.8192 C   0  0  0  0  0  0  0  0  0  0  0  0
  -40.7483   57.5652   61.7407 C   0  0  0  0  0  0  0  0  0  0  0  0
  -41.6550   56.3409   61.7074 C   0  0  0  0  0  0  0  0  0  0  0  0
  -42.0332   55.9368   63.1160 C   0  0  0  0  0  0  0  0  0  0  0  0
  -41.6118   54.6003   63.6432 C   0  0  0  0  0  0  0  0  0  0  0  0
  -42.7334   56.7716   63.8980 C   0  0  0  0  0  0  0  0  0  0  0  0
  -44.4788   55.9495   65.3503 O   0  0  0  0  0  0  0  0  0  0  0  0
  -43.1160   56.3874   65.3091 C   0  0  0  0  0  0  0  0  0  0  0  0
  -44.7127   55.7059   66.2596 H   0  0  0  0  0  0  0  0  0  0  0  0
  6  7  1  0  0  0
 15 16  1  0  0  0
 15 17  1  0  0  0
  7  8  1  0  0  0
  7  9  2  0  0  0
  9  5  1  0  0  0
  5  4  1  0  0  0
  4  1  1  0  0  0
  1  2  1  0  0  0
  1  3  2  0  0  0
  3 10  1  0  0  0
 10 11  1  0  0  0
 11 12  1  0  0  0
 12 13  1  0  0  0
 12 14  2  0  0  0
 14 16  1  0  0  0
M  END
> <minimizedAffinity>
-6.64750

> <CNNscore>
0.4581841230

> <CNNaffinity>
5.6128621101

> <CNN_VS>
2.5717244148

> <CNNaffinity_variance>
0.0252700243

$$$$
