/media/chris/experiments/cd1a-new-docking/inputs/ligands/6nux_ligand.pdb


 17 16  0  0  0  0  0  0  0  0999 V2000
  -49.9887   58.5880   61.1820 C   0  0  0  0  0  0  0  0  0  0  0  0
  -49.6699   60.0541   61.1049 C   0  0  0  0  0  0  0  0  0  0  0  0
  -49.6883   57.9093   62.2981 C   0  0  0  0  0  0  0  0  0  0  0  0
  -50.6473   57.8768   60.0187 C   0  0  0  0  0  0  0  0  0  0  0  0
  -49.6772   56.8982   59.3649 C   0  0  0  0  0  0  0  0  0  0  0  0
  -47.3641   55.4239   58.5373 C   0  0  0  0  0  0  0  0  0  0  0  0
  -47.3465   56.9219   58.5221 C   0  0  0  0  0  0  0  0  0  0  0  0
  -46.1116   57.6443   58.0742 C   0  0  0  0  0  0  0  0  0  0  0  0
  -48.4269   57.6153   58.9108 C   0  0  0  0  0  0  0  0  0  0  0  0
  -49.0362   58.6148   63.4649 C   0  0  0  0  0  0  0  0  0  0  0  0
  -49.7121   58.2090   64.7690 C   0  0  0  0  0  0  0  0  0  0  0  0
  -48.6803   58.0718   65.8675 C   0  0  0  0  0  0  0  0  0  0  0  0
  -47.9356   59.2809   66.3416 C   0  0  0  0  0  0  0  0  0  0  0  0
  -48.4364   56.8769   66.4259 C   0  0  0  0  0  0  0  0  0  0  0  0
  -46.1313   56.4074   66.9714 O   0  0  0  0  0  0  0  0  0  0  0  0
  -47.4129   56.7212   67.5276 C   0  0  0  0  0  0  0  0  0  0  0  0
  -45.4835   56.3099   67.6867 H   0  0  0  0  0  0  0  0  0  0  0  0
  6  7  1  0  0  0
 15 16  1  0  0  0
 15 17  1  0  0  0
  7  8  1  0  0  0
  7  9  2  0  0  0
  9  5  1  0  0  0
  5  4  1  0  0  0
  4  1  1  0  0  0
  1  2  1  0  0  0
  1  3  2  0  0  0
  3 10  1  0  0  0
 10 11  1  0  0  0
 11 12  1  0  0  0
 12 13  1  0  0  0
 12 14  2  0  0  0
 14 16  1  0  0  0
M  END
> <minimizedAffinity>
-7.35991

> <CNNscore>
0.8641252518

> <CNNaffinity>
6.2456531525

> <CNN_VS>
5.3970265388

> <CNNaffinity_variance>
0.2154328823

$$$$
/media/chris/experiments/cd1a-new-docking/inputs/ligands/6nux_ligand.pdb


 17 16  0  0  0  0  0  0  0  0999 V2000
  -38.5491   57.5297   61.3850 C   0  0  0  0  0  0  0  0  0  0  0  0
  -39.5903   58.2225   60.5527 C   0  0  0  0  0  0  0  0  0  0  0  0
  -38.9304   56.5995   62.2716 C   0  0  0  0  0  0  0  0  0  0  0  0
  -37.0815   57.8674   61.2273 C   0  0  0  0  0  0  0  0  0  0  0  0
  -36.2543   57.2063   62.3251 C   0  0  0  0  0  0  0  0  0  0  0  0
  -34.6394   58.3744   64.3833 C   0  0  0  0  0  0  0  0  0  0  0  0
  -34.0273   58.0014   63.0678 C   0  0  0  0  0  0  0  0  0  0  0  0
  -32.5668   58.2452   62.8339 C   0  0  0  0  0  0  0  0  0  0  0  0
  -34.7808   57.4562   62.1012 C   0  0  0  0  0  0  0  0  0  0  0  0
  -40.3932   56.2538   62.4294 C   0  0  0  0  0  0  0  0  0  0  0  0
  -40.8053   56.3675   63.8921 C   0  0  0  0  0  0  0  0  0  0  0  0
  -42.2900   56.6432   63.9931 C   0  0  0  0  0  0  0  0  0  0  0  0
  -42.9924   57.3454   62.8729 C   0  0  0  0  0  0  0  0  0  0  0  0
  -42.9819   56.2536   65.0740 C   0  0  0  0  0  0  0  0  0  0  0  0
  -44.8612   56.5198   66.5670 O   0  0  0  0  0  0  0  0  0  0  0  0
  -44.4661   56.5160   65.1907 C   0  0  0  0  0  0  0  0  0  0  0  0
  -45.8143   56.6889   66.6294 H   0  0  0  0  0  0  0  0  0  0  0  0
  6  7  1  0  0  0
 15 16  1  0  0  0
 15 17  1  0  0  0
  7  8  1  0  0  0
  7  9  2  0  0  0
  9  5  1  0  0  0
  5  4  1  0  0  0
  4  1  1  0  0  0
  1  2  1  0  0  0
  1  3  2  0  0  0
  3 10  1  0  0  0
 10 11  1  0  0  0
 11 12  1  0  0  0
 12 13  1  0  0  0
 12 14  2  0  0  0
 14 16  1  0  0  0
M  END
> <minimizedAffinity>
-7.02969

> <CNNscore>
0.7726935744

> <CNNaffinity>
5.8134565353

> <CNN_VS>
4.4920206070

> <CNNaffinity_variance>
0.0226226766

$$$$
/media/chris/experiments/cd1a-new-docking/inputs/ligands/6nux_ligand.pdb


 17 16  0  0  0  0  0  0  0  0999 V2000
  -38.4814   57.5433   61.3941 C   0  0  0  0  0  0  0  0  0  0  0  0
  -39.5453   58.2385   60.5930 C   0  0  0  0  0  0  0  0  0  0  0  0
  -38.8374   56.6038   62.2814 C   0  0  0  0  0  0  0  0  0  0  0  0
  -37.0195   57.8891   61.2045 C   0  0  0  0  0  0  0  0  0  0  0  0
  -36.1714   57.2762   62.3141 C   0  0  0  0  0  0  0  0  0  0  0  0
  -34.4724   58.3385   64.3621 C   0  0  0  0  0  0  0  0  0  0  0  0
  -33.9095   58.0104   63.0130 C   0  0  0  0  0  0  0  0  0  0  0  0
  -32.4540   58.2435   62.7403 C   0  0  0  0  0  0  0  0  0  0  0  0
  -34.7024   57.5148   62.0512 C   0  0  0  0  0  0  0  0  0  0  0  0
  -40.2946   56.2501   62.4711 C   0  0  0  0  0  0  0  0  0  0  0  0
  -40.6951   56.4363   63.9296 C   0  0  0  0  0  0  0  0  0  0  0  0
  -40.8625   57.9085   64.2378 C   0  0  0  0  0  0  0  0  0  0  0  0
  -41.9039   58.7047   63.5147 C   0  0  0  0  0  0  0  0  0  0  0  0
  -40.0916   58.5017   65.1613 C   0  0  0  0  0  0  0  0  0  0  0  0
  -39.1820   60.4035   66.3391 O   0  0  0  0  0  0  0  0  0  0  0  0
  -40.2473   59.9699   65.4862 C   0  0  0  0  0  0  0  0  0  0  0  0
  -39.2922   61.3459   66.5406 H   0  0  0  0  0  0  0  0  0  0  0  0
  6  7  1  0  0  0
 15 16  1  0  0  0
 15 17  1  0  0  0
  7  8  1  0  0  0
  7  9  2  0  0  0
  9  5  1  0  0  0
  5  4  1  0  0  0
  4  1  1  0  0  0
  1  2  1  0  0  0
  1  3  2  0  0  0
  3 10  1  0  0  0
 10 11  1  0  0  0
 11 12  1  0  0  0
 12 13  1  0  0  0
 12 14  2  0  0  0
 14 16  1  0  0  0
M  END
> <minimizedAffinity>
-6.87547

> <CNNscore>
0.6414614320

> <CNNaffinity>
5.6072597504

> <CNN_VS>
3.5968408585

> <CNNaffinity_variance>
0.0192069281

$$$$
/media/chris/experiments/cd1a-new-docking/inputs/ligands/6nux_ligand.pdb


 17 16  0  0  0  0  0  0  0  0999 V2000
  -38.7103   57.8472   61.2098 C   0  0  0  0  0  0  0  0  0  0  0  0
  -37.9873   58.9254   60.4536 C   0  0  0  0  0  0  0  0  0  0  0  0
  -38.0228   57.0628   62.0516 C   0  0  0  0  0  0  0  0  0  0  0  0
  -40.2004   57.6445   61.0339 C   0  0  0  0  0  0  0  0  0  0  0  0
  -40.6804   56.4411   61.8387 C   0  0  0  0  0  0  0  0  0  0  0  0
  -41.6498   54.5503   63.7607 C   0  0  0  0  0  0  0  0  0  0  0  0
  -42.0143   55.9985   63.8803 C   0  0  0  0  0  0  0  0  0  0  0  0
  -42.8906   56.4516   65.0091 C   0  0  0  0  0  0  0  0  0  0  0  0
  -41.5639   56.8862   62.9812 C   0  0  0  0  0  0  0  0  0  0  0  0
  -36.5362   57.2639   62.2358 C   0  0  0  0  0  0  0  0  0  0  0  0
  -36.1745   57.1867   63.7142 C   0  0  0  0  0  0  0  0  0  0  0  0
  -36.9911   58.1888   64.5012 C   0  0  0  0  0  0  0  0  0  0  0  0
  -38.1994   57.7312   65.2575 C   0  0  0  0  0  0  0  0  0  0  0  0
  -36.6337   59.4811   64.5341 C   0  0  0  0  0  0  0  0  0  0  0  0
  -38.3112   61.2159   64.4453 O   0  0  0  0  0  0  0  0  0  0  0  0
  -37.4341   60.4957   65.3185 C   0  0  0  0  0  0  0  0  0  0  0  0
  -38.8190   61.8632   64.9590 H   0  0  0  0  0  0  0  0  0  0  0  0
  6  7  1  0  0  0
 15 16  1  0  0  0
 15 17  1  0  0  0
  7  8  1  0  0  0
  7  9  2  0  0  0
  9  5  1  0  0  0
  5  4  1  0  0  0
  4  1  1  0  0  0
  1  2  1  0  0  0
  1  3  2  0  0  0
  3 10  1  0  0  0
 10 11  1  0  0  0
 11 12  1  0  0  0
 12 13  1  0  0  0
 12 14  2  0  0  0
 14 16  1  0  0  0
M  END
> <minimizedAffinity>
-6.79961

> <CNNscore>
0.6148343086

> <CNNaffinity>
5.5618066788

> <CNN_VS>
3.4195895195

> <CNNaffinity_variance>
0.0335932076

$$$$
/media/chris/experiments/cd1a-new-docking/inputs/ligands/6nux_ligand.pdb


 17 16  0  0  0  0  0  0  0  0999 V2000
  -49.5407   59.2194   62.9562 C   0  0  0  0  0  0  0  0  0  0  0  0
  -49.5143   60.6291   63.4748 C   0  0  0  0  0  0  0  0  0  0  0  0
  -49.6206   58.2022   63.8253 C   0  0  0  0  0  0  0  0  0  0  0  0
  -49.4838   58.9406   61.4690 C   0  0  0  0  0  0  0  0  0  0  0  0
  -48.8218   57.5938   61.1970 C   0  0  0  0  0  0  0  0  0  0  0  0
  -45.9989   57.8868   60.8044 C   0  0  0  0  0  0  0  0  0  0  0  0
  -46.9068   57.7015   59.6272 C   0  0  0  0  0  0  0  0  0  0  0  0
  -46.3303   57.6729   58.2436 C   0  0  0  0  0  0  0  0  0  0  0  0
  -48.2291   57.5660   59.8071 C   0  0  0  0  0  0  0  0  0  0  0  0
  -49.6836   58.4742   65.3107 C   0  0  0  0  0  0  0  0  0  0  0  0
  -48.8395   57.4560   66.0678 C   0  0  0  0  0  0  0  0  0  0  0  0
  -47.3720   57.8052   65.9458 C   0  0  0  0  0  0  0  0  0  0  0  0
  -46.9180   59.2070   66.2108 C   0  0  0  0  0  0  0  0  0  0  0  0
  -46.4749   56.8655   65.6123 C   0  0  0  0  0  0  0  0  0  0  0  0
  -44.3137   56.8244   66.6887 O   0  0  0  0  0  0  0  0  0  0  0  0
  -45.0045   57.1943   65.4902 C   0  0  0  0  0  0  0  0  0  0  0  0
  -43.3722   57.0397   66.5988 H   0  0  0  0  0  0  0  0  0  0  0  0
  6  7  1  0  0  0
 15 16  1  0  0  0
 15 17  1  0  0  0
  7  8  1  0  0  0
  7  9  2  0  0  0
  9  5  1  0  0  0
  5  4  1  0  0  0
  4  1  1  0  0  0
  1  2  1  0  0  0
  1  3  2  0  0  0
  3 10  1  0  0  0
 10 11  1  0  0  0
 11 12  1  0  0  0
 12 13  1  0  0  0
 12 14  2  0  0  0
 14 16  1  0  0  0
M  END
> <minimizedAffinity>
-6.57953

> <CNNscore>
0.5750625730

> <CNNaffinity>
5.8261613846

> <CNN_VS>
3.3504073620

> <CNNaffinity_variance>
0.2153045833

$$$$
/media/chris/experiments/cd1a-new-docking/inputs/ligands/6nux_ligand.pdb


 17 16  0  0  0  0  0  0  0  0999 V2000
  -37.8522   58.6417   64.9992 C   0  0  0  0  0  0  0  0  0  0  0  0
  -37.0630   59.9188   64.9448 C   0  0  0  0  0  0  0  0  0  0  0  0
  -37.2379   57.4794   64.7378 C   0  0  0  0  0  0  0  0  0  0  0  0
  -39.3251   58.6563   65.3502 C   0  0  0  0  0  0  0  0  0  0  0  0
  -40.1809   58.5370   64.0934 C   0  0  0  0  0  0  0  0  0  0  0  0
  -39.6066   56.5482   62.1126 C   0  0  0  0  0  0  0  0  0  0  0  0
  -40.6522   56.2921   63.1545 C   0  0  0  0  0  0  0  0  0  0  0  0
  -41.3975   54.9913   63.1530 C   0  0  0  0  0  0  0  0  0  0  0  0
  -40.9251   57.2217   64.0822 C   0  0  0  0  0  0  0  0  0  0  0  0
  -35.7666   57.4577   64.3925 C   0  0  0  0  0  0  0  0  0  0  0  0
  -35.5810   57.2326   62.8968 C   0  0  0  0  0  0  0  0  0  0  0  0
  -34.1527   57.5369   62.4996 C   0  0  0  0  0  0  0  0  0  0  0  0
  -33.3610   56.5194   61.7386 C   0  0  0  0  0  0  0  0  0  0  0  0
  -33.5956   58.7154   62.8154 C   0  0  0  0  0  0  0  0  0  0  0  0
  -32.0413   60.4378   62.1455 O   0  0  0  0  0  0  0  0  0  0  0  0
  -32.1720   59.0392   62.4231 C   0  0  0  0  0  0  0  0  0  0  0  0
  -31.1248   60.6336   61.8952 H   0  0  0  0  0  0  0  0  0  0  0  0
  6  7  1  0  0  0
 15 16  1  0  0  0
 15 17  1  0  0  0
  7  8  1  0  0  0
  7  9  2  0  0  0
  9  5  1  0  0  0
  5  4  1  0  0  0
  4  1  1  0  0  0
  1  2  1  0  0  0
  1  3  2  0  0  0
  3 10  1  0  0  0
 10 11  1  0  0  0
 11 12  1  0  0  0
 12 13  1  0  0  0
 12 14  2  0  0  0
 14 16  1  0  0  0
M  END
> <minimizedAffinity>
-6.42446

> <CNNscore>
0.5562473536

> <CNNaffinity>
5.6022772789

> <CNN_VS>
3.1162519455

> <CNNaffinity_variance>
0.0420284979

$$$$
/media/chris/experiments/cd1a-new-docking/inputs/ligands/6nux_ligand.pdb


 17 16  0  0  0  0  0  0  0  0999 V2000
  -47.6236   57.7776   66.4411 C   0  0  0  0  0  0  0  0  0  0  0  0
  -48.1050   56.3992   66.7949 C   0  0  0  0  0  0  0  0  0  0  0  0
  -46.4478   57.9207   65.8135 C   0  0  0  0  0  0  0  0  0  0  0  0
  -48.4530   58.9981   66.7804 C   0  0  0  0  0  0  0  0  0  0  0  0
  -49.7628   58.9951   65.9990 C   0  0  0  0  0  0  0  0  0  0  0  0
  -49.4923   58.0943   63.2927 C   0  0  0  0  0  0  0  0  0  0  0  0
  -49.5770   59.5596   63.5928 C   0  0  0  0  0  0  0  0  0  0  0  0
  -49.5167   60.5510   62.4699 C   0  0  0  0  0  0  0  0  0  0  0  0
  -49.7016   59.9851   64.8587 C   0  0  0  0  0  0  0  0  0  0  0  0
  -45.6180   56.7060   65.4669 C   0  0  0  0  0  0  0  0  0  0  0  0
  -44.1435   56.9833   65.7334 C   0  0  0  0  0  0  0  0  0  0  0  0
  -43.3168   56.6007   64.5248 C   0  0  0  0  0  0  0  0  0  0  0  0
  -43.4590   57.3767   63.2524 C   0  0  0  0  0  0  0  0  0  0  0  0
  -42.4507   55.5786   64.5893 C   0  0  0  0  0  0  0  0  0  0  0  0
  -41.6525   53.7655   63.2084 O   0  0  0  0  0  0  0  0  0  0  0  0
  -41.6131   55.1848   63.3941 C   0  0  0  0  0  0  0  0  0  0  0  0
  -41.1122   53.5248   62.4396 H   0  0  0  0  0  0  0  0  0  0  0  0
  6  7  1  0  0  0
 15 16  1  0  0  0
 15 17  1  0  0  0
  7  8  1  0  0  0
  7  9  2  0  0  0
  9  5  1  0  0  0
  5  4  1  0  0  0
  4  1  1  0  0  0
  1  2  1  0  0  0
  1  3  2  0  0  0
  3 10  1  0  0  0
 10 11  1  0  0  0
 11 12  1  0  0  0
 12 13  1  0  0  0
 12 14  2  0  0  0
 14 16  1  0  0  0
M  END
> <minimizedAffinity>
-6.58030

> <CNNscore>
0.5217344165

> <CNNaffinity>
5.7452993393

> <CNN_VS>
2.9975204468

> <CNNaffinity_variance>
0.1143330559

$$$$
/media/chris/experiments/cd1a-new-docking/inputs/ligands/6nux_ligand.pdb


 17 16  0  0  0  0  0  0  0  0999 V2000
  -37.3660   57.9607   63.9082 C   0  0  0  0  0  0  0  0  0  0  0  0
  -38.5387   57.6250   64.7851 C   0  0  0  0  0  0  0  0  0  0  0  0
  -37.3838   57.5921   62.6196 C   0  0  0  0  0  0  0  0  0  0  0  0
  -36.1743   58.7121   64.4632 C   0  0  0  0  0  0  0  0  0  0  0  0
  -34.9424   57.8139   64.5073 C   0  0  0  0  0  0  0  0  0  0  0  0
  -33.7953   57.0580   61.9930 C   0  0  0  0  0  0  0  0  0  0  0  0
  -33.2033   58.1863   62.7810 C   0  0  0  0  0  0  0  0  0  0  0  0
  -32.0066   58.9151   62.2480 C   0  0  0  0  0  0  0  0  0  0  0  0
  -33.7364   58.5416   63.9595 C   0  0  0  0  0  0  0  0  0  0  0  0
  -38.5729   56.8470   62.0582 C   0  0  0  0  0  0  0  0  0  0  0  0
  -39.2771   57.6964   61.0071 C   0  0  0  0  0  0  0  0  0  0  0  0
  -40.3572   58.5347   61.6558 C   0  0  0  0  0  0  0  0  0  0  0  0
  -40.2738   60.0283   61.5965 C   0  0  0  0  0  0  0  0  0  0  0  0
  -41.3934   57.9488   62.2740 C   0  0  0  0  0  0  0  0  0  0  0  0
  -42.6064   58.4228   64.3075 O   0  0  0  0  0  0  0  0  0  0  0  0
  -42.4842   58.7694   62.9236 C   0  0  0  0  0  0  0  0  0  0  0  0
  -43.3085   58.9550   64.7133 H   0  0  0  0  0  0  0  0  0  0  0  0
  6  7  1  0  0  0
 15 16  1  0  0  0
 15 17  1  0  0  0
  7  8  1  0  0  0
  7  9  2  0  0  0
  9  5  1  0  0  0
  5  4  1  0  0  0
  4  1  1  0  0  0
  1  2  1  0  0  0
  1  3  2  0  0  0
  3 10  1  0  0  0
 10 11  1  0  0  0
 11 12  1  0  0  0
 12 13  1  0  0  0
 12 14  2  0  0  0
 14 16  1  0  0  0
M  END
> <minimizedAffinity>
-6.36749

> <CNNscore>
0.4985218644

> <CNNaffinity>
5.5876808167

> <CNN_VS>
2.7855811119

> <CNNaffinity_variance>
0.0667026117

$$$$
/media/chris/experiments/cd1a-new-docking/inputs/ligands/6nux_ligand.pdb


 17 16  0  0  0  0  0  0  0  0999 V2000
  -39.8330   57.1146   61.5592 C   0  0  0  0  0  0  0  0  0  0  0  0
  -39.5375   58.2691   60.6445 C   0  0  0  0  0  0  0  0  0  0  0  0
  -38.8313   56.5520   62.2497 C   0  0  0  0  0  0  0  0  0  0  0  0
  -41.2447   56.5885   61.7106 C   0  0  0  0  0  0  0  0  0  0  0  0
  -42.1588   57.6573   62.3008 C   0  0  0  0  0  0  0  0  0  0  0  0
  -41.2958   58.0799   64.9999 C   0  0  0  0  0  0  0  0  0  0  0  0
  -42.5434   57.2982   64.7229 C   0  0  0  0  0  0  0  0  0  0  0  0
  -43.3355   56.7366   65.8651 C   0  0  0  0  0  0  0  0  0  0  0  0
  -42.9494   57.0966   63.4604 C   0  0  0  0  0  0  0  0  0  0  0  0
  -37.4210   57.0764   62.1074 C   0  0  0  0  0  0  0  0  0  0  0  0
  -36.8150   57.3348   63.4815 C   0  0  0  0  0  0  0  0  0  0  0  0
  -35.3469   57.6760   63.3455 C   0  0  0  0  0  0  0  0  0  0  0  0
  -34.6106   58.2641   64.5087 C   0  0  0  0  0  0  0  0  0  0  0  0
  -34.6992   57.4454   62.1938 C   0  0  0  0  0  0  0  0  0  0  0  0
  -32.4445   56.5827   62.1324 O   0  0  0  0  0  0  0  0  0  0  0  0
  -33.2318   57.7752   62.0405 C   0  0  0  0  0  0  0  0  0  0  0  0
  -31.5060   56.8064   62.0328 H   0  0  0  0  0  0  0  0  0  0  0  0
  6  7  1  0  0  0
 15 16  1  0  0  0
 15 17  1  0  0  0
  7  8  1  0  0  0
  7  9  2  0  0  0
  9  5  1  0  0  0
  5  4  1  0  0  0
  4  1  1  0  0  0
  1  2  1  0  0  0
  1  3  2  0  0  0
  3 10  1  0  0  0
 10 11  1  0  0  0
 11 12  1  0  0  0
 12 13  1  0  0  0
 12 14  2  0  0  0
 14 16  1  0  0  0
M  END
> <minimizedAffinity>
-6.67543

> <CNNscore>
0.4718185961

> <CNNaffinity>
5.5916919708

> <CNN_VS>
2.6382641792

> <CNNaffinity_variance>
0.0095740100

$$$$
