/media/chris/experiments/cd1a-new-docking/inputs/ligands/6nux_ligand.pdb


 17 16  0  0  0  0  0  0  0  0999 V2000
  -49.4125   58.9459   62.7539 C   0  0  0  0  0  0  0  0  0  0  0  0
  -49.8943   60.1835   62.0517 C   0  0  0  0  0  0  0  0  0  0  0  0
  -48.9971   57.8991   62.0271 C   0  0  0  0  0  0  0  0  0  0  0  0
  -49.3872   58.8742   64.2662 C   0  0  0  0  0  0  0  0  0  0  0  0
  -48.4639   57.7559   64.7384 C   0  0  0  0  0  0  0  0  0  0  0  0
  -47.7145   55.5825   66.4484 C   0  0  0  0  0  0  0  0  0  0  0  0
  -47.6516   56.9921   66.9521 C   0  0  0  0  0  0  0  0  0  0  0  0
  -47.1972   57.2582   68.3557 C   0  0  0  0  0  0  0  0  0  0  0  0
  -48.0035   58.0119   66.1551 C   0  0  0  0  0  0  0  0  0  0  0  0
  -49.0145   57.9667   60.5173 C   0  0  0  0  0  0  0  0  0  0  0  0
  -47.6069   58.2079   59.9858 C   0  0  0  0  0  0  0  0  0  0  0  0
  -47.4684   57.6202   58.5981 C   0  0  0  0  0  0  0  0  0  0  0  0
  -46.3172   58.0263   57.7314 C   0  0  0  0  0  0  0  0  0  0  0  0
  -48.3636   56.7307   58.1439 C   0  0  0  0  0  0  0  0  0  0  0  0
  -47.4848   54.9136   56.8185 O   0  0  0  0  0  0  0  0  0  0  0  0
  -48.2393   56.1293   56.7626 C   0  0  0  0  0  0  0  0  0  0  0  0
  -47.4118   54.5371   55.9274 H   0  0  0  0  0  0  0  0  0  0  0  0
  6  7  1  0  0  0
 15 16  1  0  0  0
 15 17  1  0  0  0
  7  8  1  0  0  0
  7  9  2  0  0  0
  9  5  1  0  0  0
  5  4  1  0  0  0
  4  1  1  0  0  0
  1  2  1  0  0  0
  1  3  2  0  0  0
  3 10  1  0  0  0
 10 11  1  0  0  0
 11 12  1  0  0  0
 12 13  1  0  0  0
 12 14  2  0  0  0
 14 16  1  0  0  0
M  END
> <minimizedAffinity>
-7.17365

> <CNNscore>
0.8958265781

> <CNNaffinity>
6.5202798843

> <CNN_VS>
5.8410401344

> <CNNaffinity_variance>
0.3188942671

$$$$
/media/chris/experiments/cd1a-new-docking/inputs/ligands/6nux_ligand.pdb


 17 16  0  0  0  0  0  0  0  0999 V2000
  -38.2116   57.5977   61.3823 C   0  0  0  0  0  0  0  0  0  0  0  0
  -39.2755   58.2551   60.5498 C   0  0  0  0  0  0  0  0  0  0  0  0
  -38.5682   56.7080   62.3191 C   0  0  0  0  0  0  0  0  0  0  0  0
  -36.7489   57.9259   61.1690 C   0  0  0  0  0  0  0  0  0  0  0  0
  -35.8940   57.3316   62.2835 C   0  0  0  0  0  0  0  0  0  0  0  0
  -34.3323   59.2554   63.7220 C   0  0  0  0  0  0  0  0  0  0  0  0
  -33.6965   58.4158   62.6564 C   0  0  0  0  0  0  0  0  0  0  0  0
  -32.2403   58.5901   62.3457 C   0  0  0  0  0  0  0  0  0  0  0  0
  -34.4249   57.5156   61.9796 C   0  0  0  0  0  0  0  0  0  0  0  0
  -40.0262   56.3719   62.5329 C   0  0  0  0  0  0  0  0  0  0  0  0
  -40.5299   57.0123   63.8206 C   0  0  0  0  0  0  0  0  0  0  0  0
  -41.8239   56.3579   64.2540 C   0  0  0  0  0  0  0  0  0  0  0  0
  -42.0523   54.9056   63.9714 C   0  0  0  0  0  0  0  0  0  0  0  0
  -42.7621   57.0674   64.8983 C   0  0  0  0  0  0  0  0  0  0  0  0
  -45.1707   57.0894   64.7274 O   0  0  0  0  0  0  0  0  0  0  0  0
  -44.0587   56.4301   65.3432 C   0  0  0  0  0  0  0  0  0  0  0  0
  -45.9963   56.6723   65.0199 H   0  0  0  0  0  0  0  0  0  0  0  0
  6  7  1  0  0  0
 15 16  1  0  0  0
 15 17  1  0  0  0
  7  8  1  0  0  0
  7  9  2  0  0  0
  9  5  1  0  0  0
  5  4  1  0  0  0
  4  1  1  0  0  0
  1  2  1  0  0  0
  1  3  2  0  0  0
  3 10  1  0  0  0
 10 11  1  0  0  0
 11 12  1  0  0  0
 12 13  1  0  0  0
 12 14  2  0  0  0
 14 16  1  0  0  0
M  END
> <minimizedAffinity>
-7.00336

> <CNNscore>
0.8189185262

> <CNNaffinity>
5.7244443893

> <CNN_VS>
4.6878533363

> <CNNaffinity_variance>
0.0086019216

$$$$
/media/chris/experiments/cd1a-new-docking/inputs/ligands/6nux_ligand.pdb


 17 16  0  0  0  0  0  0  0  0999 V2000
  -38.4037   57.5801   61.3914 C   0  0  0  0  0  0  0  0  0  0  0  0
  -39.4240   58.2042   60.4823 C   0  0  0  0  0  0  0  0  0  0  0  0
  -38.7937   56.6508   62.2751 C   0  0  0  0  0  0  0  0  0  0  0  0
  -36.9469   57.9856   61.3139 C   0  0  0  0  0  0  0  0  0  0  0  0
  -36.1131   57.1991   62.3201 C   0  0  0  0  0  0  0  0  0  0  0  0
  -34.4832   58.6817   64.1517 C   0  0  0  0  0  0  0  0  0  0  0  0
  -33.8779   58.0894   62.9158 C   0  0  0  0  0  0  0  0  0  0  0  0
  -32.4163   58.2793   62.6420 C   0  0  0  0  0  0  0  0  0  0  0  0
  -34.6382   57.3965   62.0551 C   0  0  0  0  0  0  0  0  0  0  0  0
  -40.2454   56.2376   62.3533 C   0  0  0  0  0  0  0  0  0  0  0  0
  -40.7561   56.3795   63.7820 C   0  0  0  0  0  0  0  0  0  0  0  0
  -40.9408   57.8421   64.1242 C   0  0  0  0  0  0  0  0  0  0  0  0
  -41.8436   58.6924   63.2856 C   0  0  0  0  0  0  0  0  0  0  0  0
  -40.3098   58.3785   65.1792 C   0  0  0  0  0  0  0  0  0  0  0  0
  -39.3237   60.5827   65.1616 O   0  0  0  0  0  0  0  0  0  0  0  0
  -40.4857   59.8361   65.5394 C   0  0  0  0  0  0  0  0  0  0  0  0
  -39.4480   61.5155   65.3972 H   0  0  0  0  0  0  0  0  0  0  0  0
  6  7  1  0  0  0
 15 16  1  0  0  0
 15 17  1  0  0  0
  7  8  1  0  0  0
  7  9  2  0  0  0
  9  5  1  0  0  0
  5  4  1  0  0  0
  4  1  1  0  0  0
  1  2  1  0  0  0
  1  3  2  0  0  0
  3 10  1  0  0  0
 10 11  1  0  0  0
 11 12  1  0  0  0
 12 13  1  0  0  0
 12 14  2  0  0  0
 14 16  1  0  0  0
M  END
> <minimizedAffinity>
-6.79076

> <CNNscore>
0.7013098598

> <CNNaffinity>
5.6666965485

> <CNN_VS>
3.9741101265

> <CNNaffinity_variance>
0.0160361715

$$$$
/media/chris/experiments/cd1a-new-docking/inputs/ligands/6nux_ligand.pdb


 17 16  0  0  0  0  0  0  0  0999 V2000
  -41.8478   56.4491   64.2220 C   0  0  0  0  0  0  0  0  0  0  0  0
  -41.9747   54.9531   64.1688 C   0  0  0  0  0  0  0  0  0  0  0  0
  -42.8986   57.1829   64.6143 C   0  0  0  0  0  0  0  0  0  0  0  0
  -40.5491   57.1297   63.8440 C   0  0  0  0  0  0  0  0  0  0  0  0
  -39.9900   56.5460   62.5507 C   0  0  0  0  0  0  0  0  0  0  0  0
  -38.8548   58.2999   60.5900 C   0  0  0  0  0  0  0  0  0  0  0  0
  -37.9674   57.5803   61.5592 C   0  0  0  0  0  0  0  0  0  0  0  0
  -36.4832   57.7811   61.4953 C   0  0  0  0  0  0  0  0  0  0  0  0
  -38.4952   56.7569   62.4771 C   0  0  0  0  0  0  0  0  0  0  0  0
  -44.1958   56.5090   64.9985 C   0  0  0  0  0  0  0  0  0  0  0  0
  -44.5851   56.8907   66.4215 C   0  0  0  0  0  0  0  0  0  0  0  0
  -46.0495   57.2688   66.4752 C   0  0  0  0  0  0  0  0  0  0  0  0
  -47.0933   56.1956   66.4871 C   0  0  0  0  0  0  0  0  0  0  0  0
  -46.4176   58.5576   66.5228 C   0  0  0  0  0  0  0  0  0  0  0  0
  -47.9959   60.3536   66.8612 O   0  0  0  0  0  0  0  0  0  0  0  0
  -47.8751   58.9545   66.5816 C   0  0  0  0  0  0  0  0  0  0  0  0
  -48.9344   60.5965   66.8965 H   0  0  0  0  0  0  0  0  0  0  0  0
  6  7  1  0  0  0
 15 16  1  0  0  0
 15 17  1  0  0  0
  7  8  1  0  0  0
  7  9  2  0  0  0
  9  5  1  0  0  0
  5  4  1  0  0  0
  4  1  1  0  0  0
  1  2  1  0  0  0
  1  3  2  0  0  0
  3 10  1  0  0  0
 10 11  1  0  0  0
 11 12  1  0  0  0
 12 13  1  0  0  0
 12 14  2  0  0  0
 14 16  1  0  0  0
M  END
> <minimizedAffinity>
-6.71439

> <CNNscore>
0.6698091626

> <CNNaffinity>
5.6863059998

> <CNN_VS>
3.8087399006

> <CNNaffinity_variance>
0.2228678167

$$$$
/media/chris/experiments/cd1a-new-docking/inputs/ligands/6nux_ligand.pdb


 17 16  0  0  0  0  0  0  0  0999 V2000
  -49.2737   59.0098   61.8364 C   0  0  0  0  0  0  0  0  0  0  0  0
  -49.7092   57.6499   61.3695 C   0  0  0  0  0  0  0  0  0  0  0  0
  -49.3037   59.2944   63.1459 C   0  0  0  0  0  0  0  0  0  0  0  0
  -48.7990   60.0527   60.8466 C   0  0  0  0  0  0  0  0  0  0  0  0
  -47.3014   59.9144   60.5929 C   0  0  0  0  0  0  0  0  0  0  0  0
  -46.2189   57.3229   60.0257 C   0  0  0  0  0  0  0  0  0  0  0  0
  -46.5384   58.2661   58.9064 C   0  0  0  0  0  0  0  0  0  0  0  0
  -46.2860   57.8472   57.4892 C   0  0  0  0  0  0  0  0  0  0  0  0
  -47.0434   59.4808   59.1682 C   0  0  0  0  0  0  0  0  0  0  0  0
  -49.7710   58.2557   64.1393 C   0  0  0  0  0  0  0  0  0  0  0  0
  -49.8009   58.8472   65.5434 C   0  0  0  0  0  0  0  0  0  0  0  0
  -48.5497   58.4545   66.2987 C   0  0  0  0  0  0  0  0  0  0  0  0
  -47.4527   59.4552   66.4893 C   0  0  0  0  0  0  0  0  0  0  0  0
  -48.4218   57.2200   66.8073 C   0  0  0  0  0  0  0  0  0  0  0  0
  -46.2478   56.1756   66.6886 O   0  0  0  0  0  0  0  0  0  0  0  0
  -47.1817   56.8109   67.5688 C   0  0  0  0  0  0  0  0  0  0  0  0
  -45.4570   55.9178   67.1877 H   0  0  0  0  0  0  0  0  0  0  0  0
  6  7  1  0  0  0
 15 16  1  0  0  0
 15 17  1  0  0  0
  7  8  1  0  0  0
  7  9  2  0  0  0
  9  5  1  0  0  0
  5  4  1  0  0  0
  4  1  1  0  0  0
  1  2  1  0  0  0
  1  3  2  0  0  0
  3 10  1  0  0  0
 10 11  1  0  0  0
 11 12  1  0  0  0
 12 13  1  0  0  0
 12 14  2  0  0  0
 14 16  1  0  0  0
M  END
> <minimizedAffinity>
-7.20658

> <CNNscore>
0.6552616954

> <CNNaffinity>
5.8562974930

> <CNN_VS>
3.8374073505

> <CNNaffinity_variance>
0.1325200796

$$$$
/media/chris/experiments/cd1a-new-docking/inputs/ligands/6nux_ligand.pdb


 17 16  0  0  0  0  0  0  0  0999 V2000
  -49.9878   58.4393   60.9397 C   0  0  0  0  0  0  0  0  0  0  0  0
  -50.0064   59.9405   60.8858 C   0  0  0  0  0  0  0  0  0  0  0  0
  -49.7071   57.8281   62.0991 C   0  0  0  0  0  0  0  0  0  0  0  0
  -50.2872   57.6166   59.7043 C   0  0  0  0  0  0  0  0  0  0  0  0
  -49.2167   56.5510   59.4926 C   0  0  0  0  0  0  0  0  0  0  0  0
  -46.5250   57.4326   59.9244 C   0  0  0  0  0  0  0  0  0  0  0  0
  -47.0679   57.3276   58.5320 C   0  0  0  0  0  0  0  0  0  0  0  0
  -46.1960   57.6889   57.3672 C   0  0  0  0  0  0  0  0  0  0  0  0
  -48.3281   56.9172   58.3262 C   0  0  0  0  0  0  0  0  0  0  0  0
  -49.4131   58.6437   63.3371 C   0  0  0  0  0  0  0  0  0  0  0  0
  -48.0836   58.2147   63.9457 C   0  0  0  0  0  0  0  0  0  0  0  0
  -48.3107   57.6079   65.3134 C   0  0  0  0  0  0  0  0  0  0  0  0
  -49.6023   57.8536   66.0294 C   0  0  0  0  0  0  0  0  0  0  0  0
  -47.3674   56.8435   65.8832 C   0  0  0  0  0  0  0  0  0  0  0  0
  -48.0303   54.8731   67.1118 O   0  0  0  0  0  0  0  0  0  0  0  0
  -47.5780   56.2250   67.2465 C   0  0  0  0  0  0  0  0  0  0  0  0
  -48.1618   54.4870   67.9919 H   0  0  0  0  0  0  0  0  0  0  0  0
  6  7  1  0  0  0
 15 16  1  0  0  0
 15 17  1  0  0  0
  7  8  1  0  0  0
  7  9  2  0  0  0
  9  5  1  0  0  0
  5  4  1  0  0  0
  4  1  1  0  0  0
  1  2  1  0  0  0
  1  3  2  0  0  0
  3 10  1  0  0  0
 10 11  1  0  0  0
 11 12  1  0  0  0
 12 13  1  0  0  0
 12 14  2  0  0  0
 14 16  1  0  0  0
M  END
> <minimizedAffinity>
-7.97152

> <CNNscore>
0.6523915529

> <CNNaffinity>
5.9585542679

> <CNN_VS>
3.8873105049

> <CNNaffinity_variance>
0.1254339218

$$$$
/media/chris/experiments/cd1a-new-docking/inputs/ligands/6nux_ligand.pdb


 17 16  0  0  0  0  0  0  0  0999 V2000
  -38.7143   57.7627   61.3446 C   0  0  0  0  0  0  0  0  0  0  0  0
  -37.8613   58.7006   60.5387 C   0  0  0  0  0  0  0  0  0  0  0  0
  -38.1381   56.9845   62.2714 C   0  0  0  0  0  0  0  0  0  0  0  0
  -40.2107   57.6940   61.1238 C   0  0  0  0  0  0  0  0  0  0  0  0
  -40.7865   56.4141   61.7208 C   0  0  0  0  0  0  0  0  0  0  0  0
  -41.5700   54.4028   63.6050 C   0  0  0  0  0  0  0  0  0  0  0  0
  -42.1127   55.7945   63.7210 C   0  0  0  0  0  0  0  0  0  0  0  0
  -43.0693   56.1274   64.8263 C   0  0  0  0  0  0  0  0  0  0  0  0
  -41.7497   56.7381   62.8397 C   0  0  0  0  0  0  0  0  0  0  0  0
  -36.6457   57.0527   62.5005 C   0  0  0  0  0  0  0  0  0  0  0  0
  -36.3491   57.2211   63.9857 C   0  0  0  0  0  0  0  0  0  0  0  0
  -36.3235   58.6906   64.3464 C   0  0  0  0  0  0  0  0  0  0  0  0
  -35.0689   59.4826   64.1457 C   0  0  0  0  0  0  0  0  0  0  0  0
  -37.4195   59.2902   64.8344 C   0  0  0  0  0  0  0  0  0  0  0  0
  -38.0620   60.9591   66.4571 O   0  0  0  0  0  0  0  0  0  0  0  0
  -37.4145   60.7581   65.1959 C   0  0  0  0  0  0  0  0  0  0  0  0
  -38.0527   61.9036   66.6784 H   0  0  0  0  0  0  0  0  0  0  0  0
  6  7  1  0  0  0
 15 16  1  0  0  0
 15 17  1  0  0  0
  7  8  1  0  0  0
  7  9  2  0  0  0
  9  5  1  0  0  0
  5  4  1  0  0  0
  4  1  1  0  0  0
  1  2  1  0  0  0
  1  3  2  0  0  0
  3 10  1  0  0  0
 10 11  1  0  0  0
 11 12  1  0  0  0
 12 13  1  0  0  0
 12 14  2  0  0  0
 14 16  1  0  0  0
M  END
> <minimizedAffinity>
-6.85187

> <CNNscore>
0.6329215169

> <CNNaffinity>
5.5753145218

> <CNN_VS>
3.5287365913

> <CNNaffinity_variance>
0.0143736871

$$$$
/media/chris/experiments/cd1a-new-docking/inputs/ligands/6nux_ligand.pdb


 17 16  0  0  0  0  0  0  0  0999 V2000
  -46.1963   60.3659   62.8245 C   0  0  0  0  0  0  0  0  0  0  0  0
  -45.1495   61.1959   62.1373 C   0  0  0  0  0  0  0  0  0  0  0  0
  -46.5332   59.1759   62.3078 C   0  0  0  0  0  0  0  0  0  0  0  0
  -46.8652   60.8570   64.0910 C   0  0  0  0  0  0  0  0  0  0  0  0
  -48.3833   60.7854   63.9626 C   0  0  0  0  0  0  0  0  0  0  0  0
  -49.6115   58.2392   63.4961 C   0  0  0  0  0  0  0  0  0  0  0  0
  -49.5472   58.8004   64.8838 C   0  0  0  0  0  0  0  0  0  0  0  0
  -50.1311   58.0237   66.0253 C   0  0  0  0  0  0  0  0  0  0  0  0
  -48.9747   59.9929   65.1056 C   0  0  0  0  0  0  0  0  0  0  0  0
  -45.8649   58.6775   61.0471 C   0  0  0  0  0  0  0  0  0  0  0  0
  -46.7803   58.8903   59.8476 C   0  0  0  0  0  0  0  0  0  0  0  0
  -46.7224   57.6876   58.9308 C   0  0  0  0  0  0  0  0  0  0  0  0
  -46.2508   57.8521   57.5194 C   0  0  0  0  0  0  0  0  0  0  0  0
  -47.0803   56.4745   59.3770 C   0  0  0  0  0  0  0  0  0  0  0  0
  -48.3401   54.9167   58.0290 O   0  0  0  0  0  0  0  0  0  0  0  0
  -47.0245   55.2608   58.4775 C   0  0  0  0  0  0  0  0  0  0  0  0
  -48.2919   54.1375   57.4532 H   0  0  0  0  0  0  0  0  0  0  0  0
  6  7  1  0  0  0
 15 16  1  0  0  0
 15 17  1  0  0  0
  7  8  1  0  0  0
  7  9  2  0  0  0
  9  5  1  0  0  0
  5  4  1  0  0  0
  4  1  1  0  0  0
  1  2  1  0  0  0
  1  3  2  0  0  0
  3 10  1  0  0  0
 10 11  1  0  0  0
 11 12  1  0  0  0
 12 13  1  0  0  0
 12 14  2  0  0  0
 14 16  1  0  0  0
M  END
> <minimizedAffinity>
-6.75947

> <CNNscore>
0.5633285046

> <CNNaffinity>
5.7730526924

> <CNN_VS>
3.2521250248

> <CNNaffinity_variance>
0.1132313609

$$$$
/media/chris/experiments/cd1a-new-docking/inputs/ligands/6nux_ligand.pdb


 17 16  0  0  0  0  0  0  0  0999 V2000
  -37.4723   57.2512   63.6414 C   0  0  0  0  0  0  0  0  0  0  0  0
  -38.4218   57.7447   64.6959 C   0  0  0  0  0  0  0  0  0  0  0  0
  -37.9630   56.7631   62.4936 C   0  0  0  0  0  0  0  0  0  0  0  0
  -35.9752   57.3058   63.8612 C   0  0  0  0  0  0  0  0  0  0  0  0
  -35.2314   57.2405   62.5313 C   0  0  0  0  0  0  0  0  0  0  0  0
  -32.4967   56.5187   62.0734 C   0  0  0  0  0  0  0  0  0  0  0  0
  -32.8743   57.9567   62.2584 C   0  0  0  0  0  0  0  0  0  0  0  0
  -31.8132   59.0145   62.2053 C   0  0  0  0  0  0  0  0  0  0  0  0
  -34.1531   58.2981   62.4750 C   0  0  0  0  0  0  0  0  0  0  0  0
  -39.4563   56.7114   62.2659 C   0  0  0  0  0  0  0  0  0  0  0  0
  -39.8283   57.5245   61.0320 C   0  0  0  0  0  0  0  0  0  0  0  0
  -40.1168   58.9578   61.4227 C   0  0  0  0  0  0  0  0  0  0  0  0
  -39.4515   60.0770   60.6837 C   0  0  0  0  0  0  0  0  0  0  0  0
  -40.9720   59.2321   62.4188 C   0  0  0  0  0  0  0  0  0  0  0  0
  -42.2960   60.6813   63.8252 O   0  0  0  0  0  0  0  0  0  0  0  0
  -41.2764   60.6574   62.8202 C   0  0  0  0  0  0  0  0  0  0  0  0
  -42.4826   61.6000   64.0746 H   0  0  0  0  0  0  0  0  0  0  0  0
  6  7  1  0  0  0
 15 16  1  0  0  0
 15 17  1  0  0  0
  7  8  1  0  0  0
  7  9  2  0  0  0
  9  5  1  0  0  0
  5  4  1  0  0  0
  4  1  1  0  0  0
  1  2  1  0  0  0
  1  3  2  0  0  0
  3 10  1  0  0  0
 10 11  1  0  0  0
 11 12  1  0  0  0
 12 13  1  0  0  0
 12 14  2  0  0  0
 14 16  1  0  0  0
M  END
> <minimizedAffinity>
-6.66417

> <CNNscore>
0.5447813869

> <CNNaffinity>
5.4497919083

> <CNN_VS>
2.9689452648

> <CNNaffinity_variance>
0.0354091749

$$$$
