/media/chris/experiments/cd1a-new-docking/inputs/ligands/6nux_ligand.pdb


 17 16  0  0  0  0  0  0  0  0999 V2000
  -38.4411   57.4998   61.4840 C   0  0  0  0  0  0  0  0  0  0  0  0
  -39.5400   58.0320   60.6089 C   0  0  0  0  0  0  0  0  0  0  0  0
  -38.7473   56.6636   62.4859 C   0  0  0  0  0  0  0  0  0  0  0  0
  -36.9992   57.8933   61.2415 C   0  0  0  0  0  0  0  0  0  0  0  0
  -36.0750   57.1970   62.2351 C   0  0  0  0  0  0  0  0  0  0  0  0
  -34.4312   58.4006   64.2497 C   0  0  0  0  0  0  0  0  0  0  0  0
  -33.8648   58.1046   62.8946 C   0  0  0  0  0  0  0  0  0  0  0  0
  -32.4350   58.4440   62.5985 C   0  0  0  0  0  0  0  0  0  0  0  0
  -34.6320   57.5430   61.9484 C   0  0  0  0  0  0  0  0  0  0  0  0
  -40.1840   56.2624   62.7294 C   0  0  0  0  0  0  0  0  0  0  0  0
  -40.7063   56.9237   63.9990 C   0  0  0  0  0  0  0  0  0  0  0  0
  -42.2196   56.9114   64.0056 C   0  0  0  0  0  0  0  0  0  0  0  0
  -42.9711   57.3837   62.7999 C   0  0  0  0  0  0  0  0  0  0  0  0
  -42.8914   56.4706   65.0795 C   0  0  0  0  0  0  0  0  0  0  0  0
  -44.8777   56.5109   66.4521 O   0  0  0  0  0  0  0  0  0  0  0  0
  -44.4027   56.4464   65.1029 C   0  0  0  0  0  0  0  0  0  0  0  0
  -45.8476   56.4946   66.4546 H   0  0  0  0  0  0  0  0  0  0  0  0
  6  7  1  0  0  0
 15 16  1  0  0  0
 15 17  1  0  0  0
  7  8  1  0  0  0
  7  9  2  0  0  0
  9  5  1  0  0  0
  5  4  1  0  0  0
  4  1  1  0  0  0
  1  2  1  0  0  0
  1  3  2  0  0  0
  3 10  1  0  0  0
 10 11  1  0  0  0
 11 12  1  0  0  0
 12 13  1  0  0  0
 12 14  2  0  0  0
 14 16  1  0  0  0
M  END
> <minimizedAffinity>
-6.96746

> <CNNscore>
0.7213535309

> <CNNaffinity>
5.7805318832

> <CNN_VS>
4.1698069572

> <CNNaffinity_variance>
0.0386715159

$$$$
/media/chris/experiments/cd1a-new-docking/inputs/ligands/6nux_ligand.pdb


 17 16  0  0  0  0  0  0  0  0999 V2000
  -39.1888   57.4131   61.4074 C   0  0  0  0  0  0  0  0  0  0  0  0
  -38.6919   58.5065   60.5049 C   0  0  0  0  0  0  0  0  0  0  0  0
  -38.3250   56.7927   62.2233 C   0  0  0  0  0  0  0  0  0  0  0  0
  -40.6491   57.0127   61.4067 C   0  0  0  0  0  0  0  0  0  0  0  0
  -41.4855   58.0201   62.1890 C   0  0  0  0  0  0  0  0  0  0  0  0
  -40.9368   57.9737   65.0007 C   0  0  0  0  0  0  0  0  0  0  0  0
  -42.1558   57.2902   64.4609 C   0  0  0  0  0  0  0  0  0  0  0  0
  -43.0844   56.5803   65.3995 C   0  0  0  0  0  0  0  0  0  0  0  0
  -42.4148   57.3081   63.1449 C   0  0  0  0  0  0  0  0  0  0  0  0
  -36.8673   57.1918   62.2327 C   0  0  0  0  0  0  0  0  0  0  0  0
  -36.3483   57.2529   63.6641 C   0  0  0  0  0  0  0  0  0  0  0  0
  -34.9772   57.8927   63.6921 C   0  0  0  0  0  0  0  0  0  0  0  0
  -34.3806   58.3130   64.9994 C   0  0  0  0  0  0  0  0  0  0  0  0
  -34.2889   58.0760   62.5556 C   0  0  0  0  0  0  0  0  0  0  0  0
  -33.0248   60.1280   62.4067 O   0  0  0  0  0  0  0  0  0  0  0  0
  -32.9162   58.7089   62.5642 C   0  0  0  0  0  0  0  0  0  0  0  0
  -32.1388   60.5228   62.4137 H   0  0  0  0  0  0  0  0  0  0  0  0
  6  7  1  0  0  0
 15 16  1  0  0  0
 15 17  1  0  0  0
  7  8  1  0  0  0
  7  9  2  0  0  0
  9  5  1  0  0  0
  5  4  1  0  0  0
  4  1  1  0  0  0
  1  2  1  0  0  0
  1  3  2  0  0  0
  3 10  1  0  0  0
 10 11  1  0  0  0
 11 12  1  0  0  0
 12 13  1  0  0  0
 12 14  2  0  0  0
 14 16  1  0  0  0
M  END
> <minimizedAffinity>
-6.68089

> <CNNscore>
0.6715102196

> <CNNaffinity>
5.7607493401

> <CNN_VS>
3.8684020042

> <CNNaffinity_variance>
0.0252207667

$$$$
/media/chris/experiments/cd1a-new-docking/inputs/ligands/6nux_ligand.pdb


 17 16  0  0  0  0  0  0  0  0999 V2000
  -38.4228   57.5352   61.3913 C   0  0  0  0  0  0  0  0  0  0  0  0
  -39.4409   58.2085   60.5155 C   0  0  0  0  0  0  0  0  0  0  0  0
  -38.8258   56.6106   62.2741 C   0  0  0  0  0  0  0  0  0  0  0  0
  -36.9540   57.8863   61.2815 C   0  0  0  0  0  0  0  0  0  0  0  0
  -36.1607   57.2523   62.4195 C   0  0  0  0  0  0  0  0  0  0  0  0
  -34.5160   59.1190   63.8407 C   0  0  0  0  0  0  0  0  0  0  0  0
  -33.9100   58.2133   62.8126 C   0  0  0  0  0  0  0  0  0  0  0  0
  -32.4398   58.2913   62.5303 C   0  0  0  0  0  0  0  0  0  0  0  0
  -34.6773   57.3396   62.1438 C   0  0  0  0  0  0  0  0  0  0  0  0
  -40.2898   56.2515   62.3843 C   0  0  0  0  0  0  0  0  0  0  0  0
  -40.7615   56.4049   63.8252 C   0  0  0  0  0  0  0  0  0  0  0  0
  -40.8756   57.8716   64.1805 C   0  0  0  0  0  0  0  0  0  0  0  0
  -41.8225   58.7480   63.4210 C   0  0  0  0  0  0  0  0  0  0  0  0
  -40.1424   58.3888   65.1774 C   0  0  0  0  0  0  0  0  0  0  0  0
  -39.2051   60.5983   64.9123 O   0  0  0  0  0  0  0  0  0  0  0  0
  -40.2462   59.8501   65.5499 C   0  0  0  0  0  0  0  0  0  0  0  0
  -39.2817   61.5335   65.1584 H   0  0  0  0  0  0  0  0  0  0  0  0
  6  7  1  0  0  0
 15 16  1  0  0  0
 15 17  1  0  0  0
  7  8  1  0  0  0
  7  9  2  0  0  0
  9  5  1  0  0  0
  5  4  1  0  0  0
  4  1  1  0  0  0
  1  2  1  0  0  0
  1  3  2  0  0  0
  3 10  1  0  0  0
 10 11  1  0  0  0
 11 12  1  0  0  0
 12 13  1  0  0  0
 12 14  2  0  0  0
 14 16  1  0  0  0
M  END
> <minimizedAffinity>
-6.77604

> <CNNscore>
0.6480283141

> <CNNaffinity>
5.5754189491

> <CNN_VS>
3.6130292416

> <CNNaffinity_variance>
0.0350974128

$$$$
/media/chris/experiments/cd1a-new-docking/inputs/ligands/6nux_ligand.pdb


 17 16  0  0  0  0  0  0  0  0999 V2000
  -34.7891   58.0502   63.0473 C   0  0  0  0  0  0  0  0  0  0  0  0
  -33.3414   58.3593   62.7914 C   0  0  0  0  0  0  0  0  0  0  0  0
  -35.4223   58.6638   64.0569 C   0  0  0  0  0  0  0  0  0  0  0  0
  -35.5354   57.0618   62.1761 C   0  0  0  0  0  0  0  0  0  0  0  0
  -36.8530   57.6573   61.6907 C   0  0  0  0  0  0  0  0  0  0  0  0
  -39.4980   57.9902   60.6409 C   0  0  0  0  0  0  0  0  0  0  0  0
  -39.2601   57.0775   61.8049 C   0  0  0  0  0  0  0  0  0  0  0  0
  -40.4136   56.3422   62.4182 C   0  0  0  0  0  0  0  0  0  0  0  0
  -38.0235   56.9208   62.3003 C   0  0  0  0  0  0  0  0  0  0  0  0
  -34.6844   59.6557   64.9264 C   0  0  0  0  0  0  0  0  0  0  0  0
  -34.6671   61.0267   64.2614 C   0  0  0  0  0  0  0  0  0  0  0  0
  -35.6062   61.9667   64.9857 C   0  0  0  0  0  0  0  0  0  0  0  0
  -36.9490   62.2728   64.3985 C   0  0  0  0  0  0  0  0  0  0  0  0
  -35.2481   62.5186   66.1545 C   0  0  0  0  0  0  0  0  0  0  0  0
  -36.4693   62.9351   68.1957 O   0  0  0  0  0  0  0  0  0  0  0  0
  -36.1745   63.4560   66.8949 C   0  0  0  0  0  0  0  0  0  0  0  0
  -37.0638   63.5443   68.6608 H   0  0  0  0  0  0  0  0  0  0  0  0
  6  7  1  0  0  0
 15 16  1  0  0  0
 15 17  1  0  0  0
  7  8  1  0  0  0
  7  9  2  0  0  0
  9  5  1  0  0  0
  5  4  1  0  0  0
  4  1  1  0  0  0
  1  2  1  0  0  0
  1  3  2  0  0  0
  3 10  1  0  0  0
 10 11  1  0  0  0
 11 12  1  0  0  0
 12 13  1  0  0  0
 12 14  2  0  0  0
 14 16  1  0  0  0
M  END
> <minimizedAffinity>
-6.90931

> <CNNscore>
0.6345235109

> <CNNaffinity>
5.3765859604

> <CNN_VS>
3.4115703106

> <CNNaffinity_variance>
0.0505262725

$$$$
/media/chris/experiments/cd1a-new-docking/inputs/ligands/6nux_ligand.pdb


 17 16  0  0  0  0  0  0  0  0999 V2000
  -39.4972   57.1780   61.5494 C   0  0  0  0  0  0  0  0  0  0  0  0
  -39.3415   58.2485   60.5070 C   0  0  0  0  0  0  0  0  0  0  0  0
  -38.4148   56.7436   62.2102 C   0  0  0  0  0  0  0  0  0  0  0  0
  -40.8587   56.5936   61.8616 C   0  0  0  0  0  0  0  0  0  0  0  0
  -40.8478   55.8926   63.2161 C   0  0  0  0  0  0  0  0  0  0  0  0
  -41.8558   57.7001   65.1975 C   0  0  0  0  0  0  0  0  0  0  0  0
  -42.7240   56.5966   64.6748 C   0  0  0  0  0  0  0  0  0  0  0  0
  -44.1210   56.4424   65.1960 C   0  0  0  0  0  0  0  0  0  0  0  0
  -42.2547   55.7473   63.7486 C   0  0  0  0  0  0  0  0  0  0  0  0
  -37.0539   57.3271   61.9072 C   0  0  0  0  0  0  0  0  0  0  0  0
  -36.3035   57.6109   63.2027 C   0  0  0  0  0  0  0  0  0  0  0  0
  -36.0858   59.1002   63.3608 C   0  0  0  0  0  0  0  0  0  0  0  0
  -37.2185   60.0467   63.1100 C   0  0  0  0  0  0  0  0  0  0  0  0
  -34.8890   59.5767   63.7340 C   0  0  0  0  0  0  0  0  0  0  0  0
  -34.0227   61.5965   62.7335 O   0  0  0  0  0  0  0  0  0  0  0  0
  -34.6539   61.0606   63.9017 C   0  0  0  0  0  0  0  0  0  0  0  0
  -33.8769   62.5481   62.8526 H   0  0  0  0  0  0  0  0  0  0  0  0
  6  7  1  0  0  0
 15 16  1  0  0  0
 15 17  1  0  0  0
  7  8  1  0  0  0
  7  9  2  0  0  0
  9  5  1  0  0  0
  5  4  1  0  0  0
  4  1  1  0  0  0
  1  2  1  0  0  0
  1  3  2  0  0  0
  3 10  1  0  0  0
 10 11  1  0  0  0
 11 12  1  0  0  0
 12 13  1  0  0  0
 12 14  2  0  0  0
 14 16  1  0  0  0
M  END
> <minimizedAffinity>
-6.51663

> <CNNscore>
0.5595845580

> <CNNaffinity>
5.5849890709

> <CNN_VS>
3.1252737045

> <CNNaffinity_variance>
0.0539342873

$$$$
/media/chris/experiments/cd1a-new-docking/inputs/ligands/6nux_ligand.pdb


 17 16  0  0  0  0  0  0  0  0999 V2000
  -34.7961   58.1583   63.1615 C   0  0  0  0  0  0  0  0  0  0  0  0
  -33.3867   58.6096   62.9029 C   0  0  0  0  0  0  0  0  0  0  0  0
  -35.4695   58.6732   64.1998 C   0  0  0  0  0  0  0  0  0  0  0  0
  -35.4595   57.1374   62.2613 C   0  0  0  0  0  0  0  0  0  0  0  0
  -36.7624   57.6871   61.6899 C   0  0  0  0  0  0  0  0  0  0  0  0
  -39.3932   58.1021   60.6335 C   0  0  0  0  0  0  0  0  0  0  0  0
  -39.1760   57.1264   61.7495 C   0  0  0  0  0  0  0  0  0  0  0  0
  -40.3427   56.3712   62.3115 C   0  0  0  0  0  0  0  0  0  0  0  0
  -37.9461   56.9311   62.2479 C   0  0  0  0  0  0  0  0  0  0  0  0
  -34.8148   59.6968   65.0986 C   0  0  0  0  0  0  0  0  0  0  0  0
  -35.5710   61.0179   65.0286 C   0  0  0  0  0  0  0  0  0  0  0  0
  -34.5960   62.1675   64.8938 C   0  0  0  0  0  0  0  0  0  0  0  0
  -34.2858   63.0212   66.0840 C   0  0  0  0  0  0  0  0  0  0  0  0
  -34.0003   62.4197   63.7189 C   0  0  0  0  0  0  0  0  0  0  0  0
  -33.5249   64.5253   62.6365 O   0  0  0  0  0  0  0  0  0  0  0  0
  -33.0201   63.5604   63.5662 C   0  0  0  0  0  0  0  0  0  0  0  0
  -32.8882   65.2516   62.5466 H   0  0  0  0  0  0  0  0  0  0  0  0
  6  7  1  0  0  0
 15 16  1  0  0  0
 15 17  1  0  0  0
  7  8  1  0  0  0
  7  9  2  0  0  0
  9  5  1  0  0  0
  5  4  1  0  0  0
  4  1  1  0  0  0
  1  2  1  0  0  0
  1  3  2  0  0  0
  3 10  1  0  0  0
 10 11  1  0  0  0
 11 12  1  0  0  0
 12 13  1  0  0  0
 12 14  2  0  0  0
 14 16  1  0  0  0
M  END
> <minimizedAffinity>
-6.70999

> <CNNscore>
0.5064998865

> <CNNaffinity>
5.3080167770

> <CNN_VS>
2.6885099411

> <CNNaffinity_variance>
0.0752815902

$$$$
/media/chris/experiments/cd1a-new-docking/inputs/ligands/6nux_ligand.pdb


 17 16  0  0  0  0  0  0  0  0999 V2000
  -38.7602   57.7829   61.2877 C   0  0  0  0  0  0  0  0  0  0  0  0
  -37.9716   58.9255   60.7138 C   0  0  0  0  0  0  0  0  0  0  0  0
  -38.1672   56.9433   62.1481 C   0  0  0  0  0  0  0  0  0  0  0  0
  -40.2117   57.5767   60.9090 C   0  0  0  0  0  0  0  0  0  0  0  0
  -40.8373   56.4692   61.7507 C   0  0  0  0  0  0  0  0  0  0  0  0
  -41.7326   54.9027   63.9764 C   0  0  0  0  0  0  0  0  0  0  0  0
  -42.2010   56.3166   63.8148 C   0  0  0  0  0  0  0  0  0  0  0  0
  -43.1420   56.9055   64.8223 C   0  0  0  0  0  0  0  0  0  0  0  0
  -41.7855   57.0523   62.7730 C   0  0  0  0  0  0  0  0  0  0  0  0
  -36.7203   57.1473   62.5345 C   0  0  0  0  0  0  0  0  0  0  0  0
  -36.5894   57.2426   64.0497 C   0  0  0  0  0  0  0  0  0  0  0  0
  -37.5470   58.2832   64.5888 C   0  0  0  0  0  0  0  0  0  0  0  0
  -38.8670   57.8565   65.1519 C   0  0  0  0  0  0  0  0  0  0  0  0
  -37.2167   59.5831   64.5754 C   0  0  0  0  0  0  0  0  0  0  0  0
  -37.7177   61.0815   66.4015 O   0  0  0  0  0  0  0  0  0  0  0  0
  -38.1580   60.6363   65.1137 C   0  0  0  0  0  0  0  0  0  0  0  0
  -38.3286   61.7564   66.7366 H   0  0  0  0  0  0  0  0  0  0  0  0
  6  7  1  0  0  0
 15 16  1  0  0  0
 15 17  1  0  0  0
  7  8  1  0  0  0
  7  9  2  0  0  0
  9  5  1  0  0  0
  5  4  1  0  0  0
  4  1  1  0  0  0
  1  2  1  0  0  0
  1  3  2  0  0  0
  3 10  1  0  0  0
 10 11  1  0  0  0
 11 12  1  0  0  0
 12 13  1  0  0  0
 12 14  2  0  0  0
 14 16  1  0  0  0
M  END
> <minimizedAffinity>
-6.63758

> <CNNscore>
0.4983437061

> <CNNaffinity>
5.4828767776

> <CNN_VS>
2.7323570251

> <CNNaffinity_variance>
0.0286135171

$$$$
/media/chris/experiments/cd1a-new-docking/inputs/ligands/6nux_ligand.pdb


 17 16  0  0  0  0  0  0  0  0999 V2000
  -38.0786   57.5147   61.6951 C   0  0  0  0  0  0  0  0  0  0  0  0
  -38.1421   58.5578   60.6158 C   0  0  0  0  0  0  0  0  0  0  0  0
  -39.2148   56.9555   62.1345 C   0  0  0  0  0  0  0  0  0  0  0  0
  -36.7497   57.0887   62.2826 C   0  0  0  0  0  0  0  0  0  0  0  0
  -36.7439   57.2751   63.7964 C   0  0  0  0  0  0  0  0  0  0  0  0
  -34.2865   58.1951   64.9470 C   0  0  0  0  0  0  0  0  0  0  0  0
  -35.4026   59.1599   64.6865 C   0  0  0  0  0  0  0  0  0  0  0  0
  -35.2272   60.6076   65.0336 C   0  0  0  0  0  0  0  0  0  0  0  0
  -36.5553   58.7324   64.1499 C   0  0  0  0  0  0  0  0  0  0  0  0
  -40.5439   57.3723   61.5479 C   0  0  0  0  0  0  0  0  0  0  0  0
  -41.5211   56.2035   61.5775 C   0  0  0  0  0  0  0  0  0  0  0  0
  -41.8903   55.8718   63.0071 C   0  0  0  0  0  0  0  0  0  0  0  0
  -41.5185   54.5394   63.5799 C   0  0  0  0  0  0  0  0  0  0  0  0
  -42.5385   56.7668   63.7673 C   0  0  0  0  0  0  0  0  0  0  0  0
  -44.2562   55.9681   65.2648 O   0  0  0  0  0  0  0  0  0  0  0  0
  -42.9114   56.4554   65.1987 C   0  0  0  0  0  0  0  0  0  0  0  0
  -44.4841   55.7720   66.1870 H   0  0  0  0  0  0  0  0  0  0  0  0
  6  7  1  0  0  0
 15 16  1  0  0  0
 15 17  1  0  0  0
  7  8  1  0  0  0
  7  9  2  0  0  0
  9  5  1  0  0  0
  5  4  1  0  0  0
  4  1  1  0  0  0
  1  2  1  0  0  0
  1  3  2  0  0  0
  3 10  1  0  0  0
 10 11  1  0  0  0
 11 12  1  0  0  0
 12 13  1  0  0  0
 12 14  2  0  0  0
 14 16  1  0  0  0
M  END
> <minimizedAffinity>
-6.88425

> <CNNscore>
0.4981970489

> <CNNaffinity>
5.4839043617

> <CNN_VS>
2.7320649624

> <CNNaffinity_variance>
0.0479970053

$$$$
/media/chris/experiments/cd1a-new-docking/inputs/ligands/6nux_ligand.pdb


 17 16  0  0  0  0  0  0  0  0999 V2000
  -37.6076   57.2599   63.6608 C   0  0  0  0  0  0  0  0  0  0  0  0
  -38.6485   57.6243   64.6809 C   0  0  0  0  0  0  0  0  0  0  0  0
  -37.9960   56.8300   62.4521 C   0  0  0  0  0  0  0  0  0  0  0  0
  -36.1329   57.3790   63.9830 C   0  0  0  0  0  0  0  0  0  0  0  0
  -35.2883   57.1796   62.7288 C   0  0  0  0  0  0  0  0  0  0  0  0
  -32.6262   56.4738   61.9387 C   0  0  0  0  0  0  0  0  0  0  0  0
  -32.9587   57.8950   62.2763 C   0  0  0  0  0  0  0  0  0  0  0  0
  -31.8906   58.9442   62.2009 C   0  0  0  0  0  0  0  0  0  0  0  0
  -34.2034   58.2288   62.6486 C   0  0  0  0  0  0  0  0  0  0  0  0
  -39.4665   56.7146   62.1224 C   0  0  0  0  0  0  0  0  0  0  0  0
  -39.8110   57.6076   60.9367 C   0  0  0  0  0  0  0  0  0  0  0  0
  -39.9934   59.0370   61.3993 C   0  0  0  0  0  0  0  0  0  0  0  0
  -39.0033   60.0822   60.9887 C   0  0  0  0  0  0  0  0  0  0  0  0
  -41.0411   59.3753   62.1653 C   0  0  0  0  0  0  0  0  0  0  0  0
  -42.1393   61.4861   61.7536 O   0  0  0  0  0  0  0  0  0  0  0  0
  -41.2426   60.7986   62.6331 C   0  0  0  0  0  0  0  0  0  0  0  0
  -42.2607   62.3973   62.0634 H   0  0  0  0  0  0  0  0  0  0  0  0
  6  7  1  0  0  0
 15 16  1  0  0  0
 15 17  1  0  0  0
  7  8  1  0  0  0
  7  9  2  0  0  0
  9  5  1  0  0  0
  5  4  1  0  0  0
  4  1  1  0  0  0
  1  2  1  0  0  0
  1  3  2  0  0  0
  3 10  1  0  0  0
 10 11  1  0  0  0
 11 12  1  0  0  0
 12 13  1  0  0  0
 12 14  2  0  0  0
 14 16  1  0  0  0
M  END
> <minimizedAffinity>
-6.72111

> <CNNscore>
0.4881761968

> <CNNaffinity>
5.3550887108

> <CNN_VS>
2.6142268181

> <CNNaffinity_variance>
0.0360107794

$$$$
