/media/chris/experiments/cd1a-new-docking/inputs/ligands/6nux_ligand.pdb


 17 16  0  0  0  0  0  0  0  0999 V2000
  -38.7909   57.7140   61.2289 C   0  0  0  0  0  0  0  0  0  0  0  0
  -37.9597   58.6790   60.4322 C   0  0  0  0  0  0  0  0  0  0  0  0
  -38.1892   56.9003   62.1079 C   0  0  0  0  0  0  0  0  0  0  0  0
  -40.2937   57.6574   61.0521 C   0  0  0  0  0  0  0  0  0  0  0  0
  -40.8838   56.4797   61.8209 C   0  0  0  0  0  0  0  0  0  0  0  0
  -41.7405   54.9505   64.0874 C   0  0  0  0  0  0  0  0  0  0  0  0
  -42.4600   56.2107   63.7149 C   0  0  0  0  0  0  0  0  0  0  0  0
  -43.6314   56.6650   64.5326 C   0  0  0  0  0  0  0  0  0  0  0  0
  -42.0630   56.9281   62.6533 C   0  0  0  0  0  0  0  0  0  0  0  0
  -36.6902   56.9561   62.2930 C   0  0  0  0  0  0  0  0  0  0  0  0
  -36.3518   57.4326   63.7004 C   0  0  0  0  0  0  0  0  0  0  0  0
  -34.9606   58.0277   63.7263 C   0  0  0  0  0  0  0  0  0  0  0  0
  -34.2964   58.3054   65.0389 C   0  0  0  0  0  0  0  0  0  0  0  0
  -34.3154   58.2980   62.5820 C   0  0  0  0  0  0  0  0  0  0  0  0
  -32.9901   60.3132   62.4649 O   0  0  0  0  0  0  0  0  0  0  0  0
  -32.9236   58.8882   62.5879 C   0  0  0  0  0  0  0  0  0  0  0  0
  -32.0922   60.6805   62.4699 H   0  0  0  0  0  0  0  0  0  0  0  0
  6  7  1  0  0  0
 15 16  1  0  0  0
 15 17  1  0  0  0
  7  8  1  0  0  0
  7  9  2  0  0  0
  9  5  1  0  0  0
  5  4  1  0  0  0
  4  1  1  0  0  0
  1  2  1  0  0  0
  1  3  2  0  0  0
  3 10  1  0  0  0
 10 11  1  0  0  0
 11 12  1  0  0  0
 12 13  1  0  0  0
 12 14  2  0  0  0
 14 16  1  0  0  0
M  END
> <minimizedAffinity>
-6.83723

> <CNNscore>
0.8608893752

> <CNNaffinity>
5.8937296867

> <CNN_VS>
5.0738492012

> <CNNaffinity_variance>
0.0079366807

$$$$
/media/chris/experiments/cd1a-new-docking/inputs/ligands/6nux_ligand.pdb


 17 16  0  0  0  0  0  0  0  0999 V2000
  -48.9801   60.3974   62.0506 C   0  0  0  0  0  0  0  0  0  0  0  0
  -47.7670   61.2394   61.7743 C   0  0  0  0  0  0  0  0  0  0  0  0
  -49.1430   59.8615   63.2683 C   0  0  0  0  0  0  0  0  0  0  0  0
  -50.0162   60.1556   60.9733 C   0  0  0  0  0  0  0  0  0  0  0  0
  -50.0472   58.6838   60.5744 C   0  0  0  0  0  0  0  0  0  0  0  0
  -49.4598   55.9121   60.1482 C   0  0  0  0  0  0  0  0  0  0  0  0
  -48.4337   56.9560   59.8292 C   0  0  0  0  0  0  0  0  0  0  0  0
  -47.0981   56.5421   59.2887 C   0  0  0  0  0  0  0  0  0  0  0  0
  -48.7045   58.2544   60.0293 C   0  0  0  0  0  0  0  0  0  0  0  0
  -48.1152   60.1040   64.3496 C   0  0  0  0  0  0  0  0  0  0  0  0
  -48.7751   60.0559   65.7224 C   0  0  0  0  0  0  0  0  0  0  0  0
  -48.8668   58.6242   66.2042 C   0  0  0  0  0  0  0  0  0  0  0  0
  -50.1816   57.9094   66.1615 C   0  0  0  0  0  0  0  0  0  0  0  0
  -47.7768   57.9887   66.6589 C   0  0  0  0  0  0  0  0  0  0  0  0
  -47.2717   55.6792   66.1667 O   0  0  0  0  0  0  0  0  0  0  0  0
  -47.8479   56.5573   67.1399 C   0  0  0  0  0  0  0  0  0  0  0  0
  -47.3228   54.7645   66.4858 H   0  0  0  0  0  0  0  0  0  0  0  0
  6  7  1  0  0  0
 15 16  1  0  0  0
 15 17  1  0  0  0
  7  8  1  0  0  0
  7  9  2  0  0  0
  9  5  1  0  0  0
  5  4  1  0  0  0
  4  1  1  0  0  0
  1  2  1  0  0  0
  1  3  2  0  0  0
  3 10  1  0  0  0
 10 11  1  0  0  0
 11 12  1  0  0  0
 12 13  1  0  0  0
 12 14  2  0  0  0
 14 16  1  0  0  0
M  END
> <minimizedAffinity>
-6.53658

> <CNNscore>
0.7841783762

> <CNNaffinity>
5.9848084450

> <CNN_VS>
4.6931571960

> <CNNaffinity_variance>
0.1446833014

$$$$
/media/chris/experiments/cd1a-new-docking/inputs/ligands/6nux_ligand.pdb


 17 16  0  0  0  0  0  0  0  0999 V2000
  -38.7975   57.8036   61.2801 C   0  0  0  0  0  0  0  0  0  0  0  0
  -37.9645   58.7051   60.4139 C   0  0  0  0  0  0  0  0  0  0  0  0
  -38.1915   57.0083   62.1728 C   0  0  0  0  0  0  0  0  0  0  0  0
  -40.3066   57.7903   61.1575 C   0  0  0  0  0  0  0  0  0  0  0  0
  -40.8783   56.4712   61.6669 C   0  0  0  0  0  0  0  0  0  0  0  0
  -41.5298   54.3724   63.5052 C   0  0  0  0  0  0  0  0  0  0  0  0
  -42.1392   55.7312   63.6685 C   0  0  0  0  0  0  0  0  0  0  0  0
  -43.0930   55.9854   64.7967 C   0  0  0  0  0  0  0  0  0  0  0  0
  -41.8380   56.7157   62.8086 C   0  0  0  0  0  0  0  0  0  0  0  0
  -36.6858   57.0212   62.3040 C   0  0  0  0  0  0  0  0  0  0  0  0
  -36.2832   57.5100   63.6901 C   0  0  0  0  0  0  0  0  0  0  0  0
  -35.7881   58.9381   63.6132 C   0  0  0  0  0  0  0  0  0  0  0  0
  -34.3332   59.2081   63.3861 C   0  0  0  0  0  0  0  0  0  0  0  0
  -36.6451   59.9623   63.7367 C   0  0  0  0  0  0  0  0  0  0  0  0
  -36.5402   61.9707   62.4001 O   0  0  0  0  0  0  0  0  0  0  0  0
  -36.1701   61.3953   63.6580 C   0  0  0  0  0  0  0  0  0  0  0  0
  -36.2305   62.8892   62.3610 H   0  0  0  0  0  0  0  0  0  0  0  0
  6  7  1  0  0  0
 15 16  1  0  0  0
 15 17  1  0  0  0
  7  8  1  0  0  0
  7  9  2  0  0  0
  9  5  1  0  0  0
  5  4  1  0  0  0
  4  1  1  0  0  0
  1  2  1  0  0  0
  1  3  2  0  0  0
  3 10  1  0  0  0
 10 11  1  0  0  0
 11 12  1  0  0  0
 12 13  1  0  0  0
 12 14  2  0  0  0
 14 16  1  0  0  0
M  END
> <minimizedAffinity>
-6.80718

> <CNNscore>
0.6918157935

> <CNNaffinity>
5.6491317749

> <CNN_VS>
3.9081585407

> <CNNaffinity_variance>
0.0256391820

$$$$
/media/chris/experiments/cd1a-new-docking/inputs/ligands/6nux_ligand.pdb


 17 16  0  0  0  0  0  0  0  0999 V2000
  -37.6949   57.5318   64.0932 C   0  0  0  0  0  0  0  0  0  0  0  0
  -38.4390   58.1865   65.2223 C   0  0  0  0  0  0  0  0  0  0  0  0
  -38.3360   57.2819   62.9429 C   0  0  0  0  0  0  0  0  0  0  0  0
  -36.2346   57.1597   64.2414 C   0  0  0  0  0  0  0  0  0  0  0  0
  -35.5360   57.1645   62.8856 C   0  0  0  0  0  0  0  0  0  0  0  0
  -32.9652   56.5169   61.7989 C   0  0  0  0  0  0  0  0  0  0  0  0
  -33.2244   57.8841   62.3539 C   0  0  0  0  0  0  0  0  0  0  0  0
  -32.1311   58.9097   62.3398 C   0  0  0  0  0  0  0  0  0  0  0  0
  -34.4262   58.1902   62.8652 C   0  0  0  0  0  0  0  0  0  0  0  0
  -39.7919   57.6562   62.7869 C   0  0  0  0  0  0  0  0  0  0  0  0
  -40.5541   56.5284   62.1018 C   0  0  0  0  0  0  0  0  0  0  0  0
  -41.4800   55.8526   63.0899 C   0  0  0  0  0  0  0  0  0  0  0  0
  -41.4506   54.3629   63.2356 C   0  0  0  0  0  0  0  0  0  0  0  0
  -42.3186   56.5798   63.8427 C   0  0  0  0  0  0  0  0  0  0  0  0
  -44.3255   56.8065   65.1663 O   0  0  0  0  0  0  0  0  0  0  0  0
  -43.2474   55.9231   64.8384 C   0  0  0  0  0  0  0  0  0  0  0  0
  -44.9144   56.3750   65.8052 H   0  0  0  0  0  0  0  0  0  0  0  0
  6  7  1  0  0  0
 15 16  1  0  0  0
 15 17  1  0  0  0
  7  8  1  0  0  0
  7  9  2  0  0  0
  9  5  1  0  0  0
  5  4  1  0  0  0
  4  1  1  0  0  0
  1  2  1  0  0  0
  1  3  2  0  0  0
  3 10  1  0  0  0
 10 11  1  0  0  0
 11 12  1  0  0  0
 12 13  1  0  0  0
 12 14  2  0  0  0
 14 16  1  0  0  0
M  END
> <minimizedAffinity>
-6.70755

> <CNNscore>
0.6600808501

> <CNNaffinity>
5.6850442886

> <CNN_VS>
3.7525887489

> <CNNaffinity_variance>
0.0244969223

$$$$
/media/chris/experiments/cd1a-new-docking/inputs/ligands/6nux_ligand.pdb


 17 16  0  0  0  0  0  0  0  0999 V2000
  -38.4149   57.5526   61.3732 C   0  0  0  0  0  0  0  0  0  0  0  0
  -39.4272   58.2433   60.5042 C   0  0  0  0  0  0  0  0  0  0  0  0
  -38.8255   56.6198   62.2438 C   0  0  0  0  0  0  0  0  0  0  0  0
  -36.9437   57.8953   61.2701 C   0  0  0  0  0  0  0  0  0  0  0  0
  -36.1543   57.2306   62.3931 C   0  0  0  0  0  0  0  0  0  0  0  0
  -34.5706   59.1048   63.8723 C   0  0  0  0  0  0  0  0  0  0  0  0
  -33.9304   58.2310   62.8373 C   0  0  0  0  0  0  0  0  0  0  0  0
  -32.4583   58.3448   62.5785 C   0  0  0  0  0  0  0  0  0  0  0  0
  -34.6692   57.3538   62.1415 C   0  0  0  0  0  0  0  0  0  0  0  0
  -40.2919   56.2690   62.3473 C   0  0  0  0  0  0  0  0  0  0  0  0
  -40.7637   56.4022   63.7902 C   0  0  0  0  0  0  0  0  0  0  0  0
  -40.9066   57.8635   64.1567 C   0  0  0  0  0  0  0  0  0  0  0  0
  -41.8246   58.7412   63.3641 C   0  0  0  0  0  0  0  0  0  0  0  0
  -40.2248   58.3745   65.1924 C   0  0  0  0  0  0  0  0  0  0  0  0
  -39.1322   60.5243   65.3190 O   0  0  0  0  0  0  0  0  0  0  0  0
  -40.3582   59.8306   65.5764 C   0  0  0  0  0  0  0  0  0  0  0  0
  -39.2296   61.4566   65.5690 H   0  0  0  0  0  0  0  0  0  0  0  0
  6  7  1  0  0  0
 15 16  1  0  0  0
 15 17  1  0  0  0
  7  8  1  0  0  0
  7  9  2  0  0  0
  9  5  1  0  0  0
  5  4  1  0  0  0
  4  1  1  0  0  0
  1  2  1  0  0  0
  1  3  2  0  0  0
  3 10  1  0  0  0
 10 11  1  0  0  0
 11 12  1  0  0  0
 12 13  1  0  0  0
 12 14  2  0  0  0
 14 16  1  0  0  0
M  END
> <minimizedAffinity>
-6.78416

> <CNNscore>
0.6598384976

> <CNNaffinity>
5.6089539528

> <CNN_VS>
3.7010037899

> <CNNaffinity_variance>
0.0199706089

$$$$
/media/chris/experiments/cd1a-new-docking/inputs/ligands/6nux_ligand.pdb


 17 16  0  0  0  0  0  0  0  0999 V2000
  -38.3659   57.5279   61.4293 C   0  0  0  0  0  0  0  0  0  0  0  0
  -39.4419   58.1063   60.5549 C   0  0  0  0  0  0  0  0  0  0  0  0
  -38.6968   56.6350   62.3726 C   0  0  0  0  0  0  0  0  0  0  0  0
  -36.9194   57.9384   61.2508 C   0  0  0  0  0  0  0  0  0  0  0  0
  -36.0245   57.2106   62.2486 C   0  0  0  0  0  0  0  0  0  0  0  0
  -34.4659   58.6351   64.1852 C   0  0  0  0  0  0  0  0  0  0  0  0
  -33.8433   58.1940   62.8959 C   0  0  0  0  0  0  0  0  0  0  0  0
  -32.4021   58.5044   62.6241 C   0  0  0  0  0  0  0  0  0  0  0  0
  -34.5705   57.5286   61.9861 C   0  0  0  0  0  0  0  0  0  0  0  0
  -40.1381   56.2168   62.5518 C   0  0  0  0  0  0  0  0  0  0  0  0
  -40.6489   56.6622   63.9167 C   0  0  0  0  0  0  0  0  0  0  0  0
  -42.1194   57.0096   63.8324 C   0  0  0  0  0  0  0  0  0  0  0  0
  -42.6155   57.8718   62.7135 C   0  0  0  0  0  0  0  0  0  0  0  0
  -42.9820   56.5421   64.7468 C   0  0  0  0  0  0  0  0  0  0  0  0
  -45.1496   56.2793   65.7781 O   0  0  0  0  0  0  0  0  0  0  0  0
  -44.4550   56.8745   64.6764 C   0  0  0  0  0  0  0  0  0  0  0  0
  -46.0928   56.4991   65.7226 H   0  0  0  0  0  0  0  0  0  0  0  0
  6  7  1  0  0  0
 15 16  1  0  0  0
 15 17  1  0  0  0
  7  8  1  0  0  0
  7  9  2  0  0  0
  9  5  1  0  0  0
  5  4  1  0  0  0
  4  1  1  0  0  0
  1  2  1  0  0  0
  1  3  2  0  0  0
  3 10  1  0  0  0
 10 11  1  0  0  0
 11 12  1  0  0  0
 12 13  1  0  0  0
 12 14  2  0  0  0
 14 16  1  0  0  0
M  END
> <minimizedAffinity>
-6.98620

> <CNNscore>
0.6298641562

> <CNNaffinity>
5.7160835266

> <CNN_VS>
3.6003561020

> <CNNaffinity_variance>
0.0284836777

$$$$
/media/chris/experiments/cd1a-new-docking/inputs/ligands/6nux_ligand.pdb


 17 16  0  0  0  0  0  0  0  0999 V2000
  -38.3187   57.5491   61.4249 C   0  0  0  0  0  0  0  0  0  0  0  0
  -39.3594   58.1819   60.5455 C   0  0  0  0  0  0  0  0  0  0  0  0
  -38.6971   56.6581   62.3521 C   0  0  0  0  0  0  0  0  0  0  0  0
  -36.8547   57.9031   61.2696 C   0  0  0  0  0  0  0  0  0  0  0  0
  -36.0280   57.2877   62.3939 C   0  0  0  0  0  0  0  0  0  0  0  0
  -33.3774   56.4475   61.7030 C   0  0  0  0  0  0  0  0  0  0  0  0
  -33.5954   57.7633   62.3853 C   0  0  0  0  0  0  0  0  0  0  0  0
  -32.4195   58.6359   62.7065 C   0  0  0  0  0  0  0  0  0  0  0  0
  -34.8348   58.1590   62.7120 C   0  0  0  0  0  0  0  0  0  0  0  0
  -40.1562   56.2962   62.5081 C   0  0  0  0  0  0  0  0  0  0  0  0
  -40.6172   56.5743   63.9338 C   0  0  0  0  0  0  0  0  0  0  0  0
  -41.5026   57.8013   63.9629 C   0  0  0  0  0  0  0  0  0  0  0  0
  -41.6391   58.5883   65.2291 C   0  0  0  0  0  0  0  0  0  0  0  0
  -42.1570   58.1938   62.8599 C   0  0  0  0  0  0  0  0  0  0  0  0
  -44.4207   59.0339   62.8319 O   0  0  0  0  0  0  0  0  0  0  0  0
  -43.0421   59.4193   62.8684 C   0  0  0  0  0  0  0  0  0  0  0  0
  -44.9786   59.8275   62.8377 H   0  0  0  0  0  0  0  0  0  0  0  0
  6  7  1  0  0  0
 15 16  1  0  0  0
 15 17  1  0  0  0
  7  8  1  0  0  0
  7  9  2  0  0  0
  9  5  1  0  0  0
  5  4  1  0  0  0
  4  1  1  0  0  0
  1  2  1  0  0  0
  1  3  2  0  0  0
  3 10  1  0  0  0
 10 11  1  0  0  0
 11 12  1  0  0  0
 12 13  1  0  0  0
 12 14  2  0  0  0
 14 16  1  0  0  0
M  END
> <minimizedAffinity>
-6.63188

> <CNNscore>
0.6026386023

> <CNNaffinity>
5.6111001968

> <CNN_VS>
3.3814656734

> <CNNaffinity_variance>
0.0254069827

$$$$
/media/chris/experiments/cd1a-new-docking/inputs/ligands/6nux_ligand.pdb


 17 16  0  0  0  0  0  0  0  0999 V2000
  -37.5964   58.3296   61.9045 C   0  0  0  0  0  0  0  0  0  0  0  0
  -36.4671   57.4019   62.2522 C   0  0  0  0  0  0  0  0  0  0  0  0
  -37.6730   59.5243   62.5073 C   0  0  0  0  0  0  0  0  0  0  0  0
  -38.6387   57.9307   60.8812 C   0  0  0  0  0  0  0  0  0  0  0  0
  -40.0447   58.1067   61.4457 C   0  0  0  0  0  0  0  0  0  0  0  0
  -40.3114   57.0521   64.0963 C   0  0  0  0  0  0  0  0  0  0  0  0
  -40.8186   56.2722   62.9221 C   0  0  0  0  0  0  0  0  0  0  0  0
  -41.4635   54.9368   63.1415 C   0  0  0  0  0  0  0  0  0  0  0  0
  -40.6937   56.7619   61.6795 C   0  0  0  0  0  0  0  0  0  0  0  0
  -36.6324   59.9306   63.5253 C   0  0  0  0  0  0  0  0  0  0  0  0
  -37.3070   60.3859   64.8136 C   0  0  0  0  0  0  0  0  0  0  0  0
  -36.7354   61.7152   65.2570 C   0  0  0  0  0  0  0  0  0  0  0  0
  -36.4226   62.7658   64.2374 C   0  0  0  0  0  0  0  0  0  0  0  0
  -36.5172   61.9617   66.5571 C   0  0  0  0  0  0  0  0  0  0  0  0
  -34.6681   63.0901   67.6243 O   0  0  0  0  0  0  0  0  0  0  0  0
  -35.9513   63.2851   67.0195 C   0  0  0  0  0  0  0  0  0  0  0  0
  -34.3152   63.9450   67.9168 H   0  0  0  0  0  0  0  0  0  0  0  0
  6  7  1  0  0  0
 15 16  1  0  0  0
 15 17  1  0  0  0
  7  8  1  0  0  0
  7  9  2  0  0  0
  9  5  1  0  0  0
  5  4  1  0  0  0
  4  1  1  0  0  0
  1  2  1  0  0  0
  1  3  2  0  0  0
  3 10  1  0  0  0
 10 11  1  0  0  0
 11 12  1  0  0  0
 12 13  1  0  0  0
 12 14  2  0  0  0
 14 16  1  0  0  0
M  END
> <minimizedAffinity>
-6.51206

> <CNNscore>
0.5971270800

> <CNNaffinity>
5.3525600433

> <CNN_VS>
3.1961586475

> <CNNaffinity_variance>
0.0728664547

$$$$
/media/chris/experiments/cd1a-new-docking/inputs/ligands/6nux_ligand.pdb


 17 16  0  0  0  0  0  0  0  0999 V2000
  -49.6167   58.6914   62.2729 C   0  0  0  0  0  0  0  0  0  0  0  0
  -49.7644   60.1073   61.7931 C   0  0  0  0  0  0  0  0  0  0  0  0
  -49.5060   58.4524   63.5872 C   0  0  0  0  0  0  0  0  0  0  0  0
  -49.5977   57.5392   61.2906 C   0  0  0  0  0  0  0  0  0  0  0  0
  -49.5564   58.0537   59.8554 C   0  0  0  0  0  0  0  0  0  0  0  0
  -47.0323   59.3228   59.3783 C   0  0  0  0  0  0  0  0  0  0  0  0
  -47.2929   57.9449   58.8512 C   0  0  0  0  0  0  0  0  0  0  0  0
  -46.2272   57.2357   58.0710 C   0  0  0  0  0  0  0  0  0  0  0  0
  -48.4741   57.3485   59.0709 C   0  0  0  0  0  0  0  0  0  0  0  0
  -49.5302   59.5977   64.5730 C   0  0  0  0  0  0  0  0  0  0  0  0
  -49.8483   59.0813   65.9710 C   0  0  0  0  0  0  0  0  0  0  0  0
  -48.7210   58.2028   66.4687 C   0  0  0  0  0  0  0  0  0  0  0  0
  -47.3477   58.7771   66.6288 C   0  0  0  0  0  0  0  0  0  0  0  0
  -48.9462   56.9172   66.7769 C   0  0  0  0  0  0  0  0  0  0  0  0
  -47.4258   55.1160   66.2519 O   0  0  0  0  0  0  0  0  0  0  0  0
  -47.8339   56.0255   67.2799 C   0  0  0  0  0  0  0  0  0  0  0  0
  -46.7125   54.5497   66.5857 H   0  0  0  0  0  0  0  0  0  0  0  0
  6  7  1  0  0  0
 15 16  1  0  0  0
 15 17  1  0  0  0
  7  8  1  0  0  0
  7  9  2  0  0  0
  9  5  1  0  0  0
  5  4  1  0  0  0
  4  1  1  0  0  0
  1  2  1  0  0  0
  1  3  2  0  0  0
  3 10  1  0  0  0
 10 11  1  0  0  0
 11 12  1  0  0  0
 12 13  1  0  0  0
 12 14  2  0  0  0
 14 16  1  0  0  0
M  END
> <minimizedAffinity>
-7.28217

> <CNNscore>
0.5770307779

> <CNNaffinity>
5.9746203423

> <CNN_VS>
3.4475398064

> <CNNaffinity_variance>
0.2349002361

$$$$
