/media/chris/experiments/cd1a-new-docking/inputs/ligands/6nux_ligand.pdb


 17 16  0  0  0  0  0  0  0  0999 V2000
  -38.8022   57.8211   61.2545 C   0  0  0  0  0  0  0  0  0  0  0  0
  -38.0276   58.7825   60.3986 C   0  0  0  0  0  0  0  0  0  0  0  0
  -38.1431   57.0261   62.1091 C   0  0  0  0  0  0  0  0  0  0  0  0
  -40.3118   57.7474   61.1643 C   0  0  0  0  0  0  0  0  0  0  0  0
  -40.8238   56.4322   61.7427 C   0  0  0  0  0  0  0  0  0  0  0  0
  -41.5481   54.3385   63.5595 C   0  0  0  0  0  0  0  0  0  0  0  0
  -42.1280   55.7102   63.7229 C   0  0  0  0  0  0  0  0  0  0  0  0
  -43.0907   55.9798   64.8399 C   0  0  0  0  0  0  0  0  0  0  0  0
  -41.7928   56.6923   62.8730 C   0  0  0  0  0  0  0  0  0  0  0  0
  -36.6367   57.0991   62.2080 C   0  0  0  0  0  0  0  0  0  0  0  0
  -36.2132   57.2726   63.6615 C   0  0  0  0  0  0  0  0  0  0  0  0
  -34.8667   57.9601   63.7311 C   0  0  0  0  0  0  0  0  0  0  0  0
  -34.2766   58.3034   65.0636 C   0  0  0  0  0  0  0  0  0  0  0  0
  -34.1945   58.2541   62.6084 C   0  0  0  0  0  0  0  0  0  0  0  0
  -33.0002   60.3491   62.4822 O   0  0  0  0  0  0  0  0  0  0  0  0
  -32.8465   58.9363   62.6582 C   0  0  0  0  0  0  0  0  0  0  0  0
  -32.1297   60.7758   62.5160 H   0  0  0  0  0  0  0  0  0  0  0  0
  6  7  1  0  0  0
 15 16  1  0  0  0
 15 17  1  0  0  0
  7  8  1  0  0  0
  7  9  2  0  0  0
  9  5  1  0  0  0
  5  4  1  0  0  0
  4  1  1  0  0  0
  1  2  1  0  0  0
  1  3  2  0  0  0
  3 10  1  0  0  0
 10 11  1  0  0  0
 11 12  1  0  0  0
 12 13  1  0  0  0
 12 14  2  0  0  0
 14 16  1  0  0  0
M  END
> <minimizedAffinity>
-6.99799

> <CNNscore>
0.8833009005

> <CNNaffinity>
5.9239072800

> <CNN_VS>
5.2325925827

> <CNNaffinity_variance>
0.0054405807

$$$$
/media/chris/experiments/cd1a-new-docking/inputs/ligands/6nux_ligand.pdb


 17 16  0  0  0  0  0  0  0  0999 V2000
  -49.2428   59.3203   62.8580 C   0  0  0  0  0  0  0  0  0  0  0  0
  -49.8640   60.5551   63.4465 C   0  0  0  0  0  0  0  0  0  0  0  0
  -49.1435   58.2144   63.6089 C   0  0  0  0  0  0  0  0  0  0  0  0
  -48.7364   59.3134   61.4311 C   0  0  0  0  0  0  0  0  0  0  0  0
  -47.4552   58.4937   61.3168 C   0  0  0  0  0  0  0  0  0  0  0  0
  -47.4531   56.3309   59.4375 C   0  0  0  0  0  0  0  0  0  0  0  0
  -46.8418   57.6481   59.0691 C   0  0  0  0  0  0  0  0  0  0  0  0
  -46.2271   57.8269   57.7135 C   0  0  0  0  0  0  0  0  0  0  0  0
  -46.8391   58.6622   59.9470 C   0  0  0  0  0  0  0  0  0  0  0  0
  -49.6525   58.2133   65.0321 C   0  0  0  0  0  0  0  0  0  0  0  0
  -48.5182   58.5391   65.9961 C   0  0  0  0  0  0  0  0  0  0  0  0
  -47.4649   57.4535   65.9440 C   0  0  0  0  0  0  0  0  0  0  0  0
  -47.8292   56.0477   66.3077 C   0  0  0  0  0  0  0  0  0  0  0  0
  -46.2109   57.7405   65.5643 C   0  0  0  0  0  0  0  0  0  0  0  0
  -44.1489   56.9034   66.5017 O   0  0  0  0  0  0  0  0  0  0  0  0
  -45.1467   56.6688   65.5017 C   0  0  0  0  0  0  0  0  0  0  0  0
  -43.4721   56.2103   66.4520 H   0  0  0  0  0  0  0  0  0  0  0  0
  6  7  1  0  0  0
 15 16  1  0  0  0
 15 17  1  0  0  0
  7  8  1  0  0  0
  7  9  2  0  0  0
  9  5  1  0  0  0
  5  4  1  0  0  0
  4  1  1  0  0  0
  1  2  1  0  0  0
  1  3  2  0  0  0
  3 10  1  0  0  0
 10 11  1  0  0  0
 11 12  1  0  0  0
 12 13  1  0  0  0
 12 14  2  0  0  0
 14 16  1  0  0  0
M  END
> <minimizedAffinity>
-6.58417

> <CNNscore>
0.7692954540

> <CNNaffinity>
6.1571426392

> <CNN_VS>
4.7366619110

> <CNNaffinity_variance>
0.4142983854

$$$$
/media/chris/experiments/cd1a-new-docking/inputs/ligands/6nux_ligand.pdb


 17 16  0  0  0  0  0  0  0  0999 V2000
  -46.6315   60.0922   62.7683 C   0  0  0  0  0  0  0  0  0  0  0  0
  -46.3856   61.5595   62.9774 C   0  0  0  0  0  0  0  0  0  0  0  0
  -47.6079   59.4860   63.4581 C   0  0  0  0  0  0  0  0  0  0  0  0
  -45.7945   59.2992   61.7869 C   0  0  0  0  0  0  0  0  0  0  0  0
  -46.5483   59.0936   60.4770 C   0  0  0  0  0  0  0  0  0  0  0  0
  -46.2994   57.8457   57.9099 C   0  0  0  0  0  0  0  0  0  0  0  0
  -46.7787   57.0538   59.0879 C   0  0  0  0  0  0  0  0  0  0  0  0
  -47.1296   55.6066   58.9151 C   0  0  0  0  0  0  0  0  0  0  0  0
  -46.8984   57.6352   60.2908 C   0  0  0  0  0  0  0  0  0  0  0  0
  -48.4507   60.2735   64.4349 C   0  0  0  0  0  0  0  0  0  0  0  0
  -48.0585   59.9267   65.8660 C   0  0  0  0  0  0  0  0  0  0  0  0
  -48.5728   58.5495   66.2258 C   0  0  0  0  0  0  0  0  0  0  0  0
  -50.0179   58.2189   66.0169 C   0  0  0  0  0  0  0  0  0  0  0  0
  -47.7410   57.6209   66.7204 C   0  0  0  0  0  0  0  0  0  0  0  0
  -47.5075   55.2463   66.3491 O   0  0  0  0  0  0  0  0  0  0  0  0
  -48.2353   56.2387   67.0811 C   0  0  0  0  0  0  0  0  0  0  0  0
  -47.8330   54.3644   66.5885 H   0  0  0  0  0  0  0  0  0  0  0  0
  6  7  1  0  0  0
 15 16  1  0  0  0
 15 17  1  0  0  0
  7  8  1  0  0  0
  7  9  2  0  0  0
  9  5  1  0  0  0
  5  4  1  0  0  0
  4  1  1  0  0  0
  1  2  1  0  0  0
  1  3  2  0  0  0
  3 10  1  0  0  0
 10 11  1  0  0  0
 11 12  1  0  0  0
 12 13  1  0  0  0
 12 14  2  0  0  0
 14 16  1  0  0  0
M  END
> <minimizedAffinity>
-6.56275

> <CNNscore>
0.7564583421

> <CNNaffinity>
6.1224751472

> <CNN_VS>
4.6313972473

> <CNNaffinity_variance>
0.5144318342

$$$$
/media/chris/experiments/cd1a-new-docking/inputs/ligands/6nux_ligand.pdb


 17 16  0  0  0  0  0  0  0  0999 V2000
  -49.8820   58.5658   61.2342 C   0  0  0  0  0  0  0  0  0  0  0  0
  -49.6767   60.0273   60.9538 C   0  0  0  0  0  0  0  0  0  0  0  0
  -49.6720   58.0998   62.4733 C   0  0  0  0  0  0  0  0  0  0  0  0
  -50.3267   57.6220   60.1368 C   0  0  0  0  0  0  0  0  0  0  0  0
  -49.2280   56.6152   59.8122 C   0  0  0  0  0  0  0  0  0  0  0  0
  -46.5268   57.4759   60.2272 C   0  0  0  0  0  0  0  0  0  0  0  0
  -47.1224   57.5036   58.8528 C   0  0  0  0  0  0  0  0  0  0  0  0
  -46.2983   57.9865   57.6973 C   0  0  0  0  0  0  0  0  0  0  0  0
  -48.3873   57.1034   58.6551 C   0  0  0  0  0  0  0  0  0  0  0  0
  -49.2336   59.0379   63.5743 C   0  0  0  0  0  0  0  0  0  0  0  0
  -47.9705   58.5093   64.2432 C   0  0  0  0  0  0  0  0  0  0  0  0
  -48.3328   57.6949   65.4663 C   0  0  0  0  0  0  0  0  0  0  0  0
  -49.6167   57.9681   66.1863 C   0  0  0  0  0  0  0  0  0  0  0  0
  -47.5170   56.7239   65.9028 C   0  0  0  0  0  0  0  0  0  0  0  0
  -47.1434   56.3715   68.2623 O   0  0  0  0  0  0  0  0  0  0  0  0
  -47.8642   55.8971   67.1196 C   0  0  0  0  0  0  0  0  0  0  0  0
  -47.3739   55.8341   69.0362 H   0  0  0  0  0  0  0  0  0  0  0  0
  6  7  1  0  0  0
 15 16  1  0  0  0
 15 17  1  0  0  0
  7  8  1  0  0  0
  7  9  2  0  0  0
  9  5  1  0  0  0
  5  4  1  0  0  0
  4  1  1  0  0  0
  1  2  1  0  0  0
  1  3  2  0  0  0
  3 10  1  0  0  0
 10 11  1  0  0  0
 11 12  1  0  0  0
 12 13  1  0  0  0
 12 14  2  0  0  0
 14 16  1  0  0  0
M  END
> <minimizedAffinity>
-7.50730

> <CNNscore>
0.7426883578

> <CNNaffinity>
6.0193605423

> <CNN_VS>
4.4705090523

> <CNNaffinity_variance>
0.1141613945

$$$$
/media/chris/experiments/cd1a-new-docking/inputs/ligands/6nux_ligand.pdb


 17 16  0  0  0  0  0  0  0  0999 V2000
  -38.4169   57.5335   61.4281 C   0  0  0  0  0  0  0  0  0  0  0  0
  -39.4928   58.1875   60.6085 C   0  0  0  0  0  0  0  0  0  0  0  0
  -38.7569   56.6176   62.3458 C   0  0  0  0  0  0  0  0  0  0  0  0
  -36.9607   57.8942   61.2232 C   0  0  0  0  0  0  0  0  0  0  0  0
  -36.0829   57.2092   62.2655 C   0  0  0  0  0  0  0  0  0  0  0  0
  -34.5401   58.7755   64.1029 C   0  0  0  0  0  0  0  0  0  0  0  0
  -33.9033   58.2273   62.8626 C   0  0  0  0  0  0  0  0  0  0  0  0
  -32.4561   58.5052   62.5873 C   0  0  0  0  0  0  0  0  0  0  0  0
  -34.6230   57.4953   61.9991 C   0  0  0  0  0  0  0  0  0  0  0  0
  -40.2082   56.2490   62.5509 C   0  0  0  0  0  0  0  0  0  0  0  0
  -40.6643   56.6650   63.9442 C   0  0  0  0  0  0  0  0  0  0  0  0
  -42.1733   56.7730   63.9856 C   0  0  0  0  0  0  0  0  0  0  0  0
  -42.9011   57.4381   62.8589 C   0  0  0  0  0  0  0  0  0  0  0  0
  -42.8630   56.2679   65.0191 C   0  0  0  0  0  0  0  0  0  0  0  0
  -44.8052   56.5323   66.4295 O   0  0  0  0  0  0  0  0  0  0  0  0
  -44.3706   56.3622   65.0757 C   0  0  0  0  0  0  0  0  0  0  0  0
  -45.7731   56.5915   66.4534 H   0  0  0  0  0  0  0  0  0  0  0  0
  6  7  1  0  0  0
 15 16  1  0  0  0
 15 17  1  0  0  0
  7  8  1  0  0  0
  7  9  2  0  0  0
  9  5  1  0  0  0
  5  4  1  0  0  0
  4  1  1  0  0  0
  1  2  1  0  0  0
  1  3  2  0  0  0
  3 10  1  0  0  0
 10 11  1  0  0  0
 11 12  1  0  0  0
 12 13  1  0  0  0
 12 14  2  0  0  0
 14 16  1  0  0  0
M  END
> <minimizedAffinity>
-6.98228

> <CNNscore>
0.7170608044

> <CNNaffinity>
5.7527551651

> <CNN_VS>
4.1250753403

> <CNNaffinity_variance>
0.0297639314

$$$$
/media/chris/experiments/cd1a-new-docking/inputs/ligands/6nux_ligand.pdb


 17 16  0  0  0  0  0  0  0  0999 V2000
  -38.4438   57.5430   61.3887 C   0  0  0  0  0  0  0  0  0  0  0  0
  -39.4593   58.2117   60.5064 C   0  0  0  0  0  0  0  0  0  0  0  0
  -38.8487   56.6187   62.2710 C   0  0  0  0  0  0  0  0  0  0  0  0
  -36.9755   57.8983   61.2861 C   0  0  0  0  0  0  0  0  0  0  0  0
  -36.1764   57.2165   62.3920 C   0  0  0  0  0  0  0  0  0  0  0  0
  -34.5649   58.9292   64.0287 C   0  0  0  0  0  0  0  0  0  0  0  0
  -33.9416   58.1571   62.9063 C   0  0  0  0  0  0  0  0  0  0  0  0
  -32.4716   58.2880   62.6430 C   0  0  0  0  0  0  0  0  0  0  0  0
  -34.6933   57.3559   62.1366 C   0  0  0  0  0  0  0  0  0  0  0  0
  -40.3122   56.2555   62.3742 C   0  0  0  0  0  0  0  0  0  0  0  0
  -40.7895   56.4005   63.8141 C   0  0  0  0  0  0  0  0  0  0  0  0
  -40.9395   57.8647   64.1662 C   0  0  0  0  0  0  0  0  0  0  0  0
  -41.8672   58.7285   63.3695 C   0  0  0  0  0  0  0  0  0  0  0  0
  -40.2553   58.3907   65.1929 C   0  0  0  0  0  0  0  0  0  0  0  0
  -39.1836   60.3286   66.1557 O   0  0  0  0  0  0  0  0  0  0  0  0
  -40.3956   59.8497   65.5624 C   0  0  0  0  0  0  0  0  0  0  0  0
  -39.2853   61.2648   66.3884 H   0  0  0  0  0  0  0  0  0  0  0  0
  6  7  1  0  0  0
 15 16  1  0  0  0
 15 17  1  0  0  0
  7  8  1  0  0  0
  7  9  2  0  0  0
  9  5  1  0  0  0
  5  4  1  0  0  0
  4  1  1  0  0  0
  1  2  1  0  0  0
  1  3  2  0  0  0
  3 10  1  0  0  0
 10 11  1  0  0  0
 11 12  1  0  0  0
 12 13  1  0  0  0
 12 14  2  0  0  0
 14 16  1  0  0  0
M  END
> <minimizedAffinity>
-6.85677

> <CNNscore>
0.6249039173

> <CNNaffinity>
5.5979695320

> <CNN_VS>
3.4981930256

> <CNNaffinity_variance>
0.0175177306

$$$$
/media/chris/experiments/cd1a-new-docking/inputs/ligands/6nux_ligand.pdb


 17 16  0  0  0  0  0  0  0  0999 V2000
  -48.6992   58.0138   65.3273 C   0  0  0  0  0  0  0  0  0  0  0  0
  -50.0678   58.2102   65.9149 C   0  0  0  0  0  0  0  0  0  0  0  0
  -48.5525   58.0053   63.9950 C   0  0  0  0  0  0  0  0  0  0  0  0
  -47.4913   57.8323   66.2222 C   0  0  0  0  0  0  0  0  0  0  0  0
  -46.8532   59.1788   66.5478 C   0  0  0  0  0  0  0  0  0  0  0  0
  -44.5428   59.7148   64.9404 C   0  0  0  0  0  0  0  0  0  0  0  0
  -44.3831   59.2384   66.3518 C   0  0  0  0  0  0  0  0  0  0  0  0
  -43.0085   59.0414   66.9167 C   0  0  0  0  0  0  0  0  0  0  0  0
  -45.4625   58.9845   67.1066 C   0  0  0  0  0  0  0  0  0  0  0  0
  -49.7534   58.1918   63.0965 C   0  0  0  0  0  0  0  0  0  0  0  0
  -49.3257   58.8025   61.7675 C   0  0  0  0  0  0  0  0  0  0  0  0
  -49.4807   57.7871   60.6559 C   0  0  0  0  0  0  0  0  0  0  0  0
  -50.7119   57.8009   59.8044 C   0  0  0  0  0  0  0  0  0  0  0  0
  -48.5183   56.8825   60.4223 C   0  0  0  0  0  0  0  0  0  0  0  0
  -47.4868   55.0349   59.2588 O   0  0  0  0  0  0  0  0  0  0  0  0
  -48.6533   55.8637   59.3138 C   0  0  0  0  0  0  0  0  0  0  0  0
  -47.5846   54.3858   58.5447 H   0  0  0  0  0  0  0  0  0  0  0  0
  6  7  1  0  0  0
 15 16  1  0  0  0
 15 17  1  0  0  0
  7  8  1  0  0  0
  7  9  2  0  0  0
  9  5  1  0  0  0
  5  4  1  0  0  0
  4  1  1  0  0  0
  1  2  1  0  0  0
  1  3  2  0  0  0
  3 10  1  0  0  0
 10 11  1  0  0  0
 11 12  1  0  0  0
 12 13  1  0  0  0
 12 14  2  0  0  0
 14 16  1  0  0  0
M  END
> <minimizedAffinity>
-6.72093

> <CNNscore>
0.5980517268

> <CNNaffinity>
5.9169325829

> <CNN_VS>
3.5386316776

> <CNNaffinity_variance>
0.3454864025

$$$$
/media/chris/experiments/cd1a-new-docking/inputs/ligands/6nux_ligand.pdb


 17 16  0  0  0  0  0  0  0  0999 V2000
  -38.5988   57.6216   61.4014 C   0  0  0  0  0  0  0  0  0  0  0  0
  -38.4262   58.7888   60.4715 C   0  0  0  0  0  0  0  0  0  0  0  0
  -37.5169   57.0675   61.9663 C   0  0  0  0  0  0  0  0  0  0  0  0
  -39.9765   57.0733   61.7080 C   0  0  0  0  0  0  0  0  0  0  0  0
  -40.1005   56.7207   63.1867 C   0  0  0  0  0  0  0  0  0  0  0  0
  -38.4630   57.8778   65.2333 C   0  0  0  0  0  0  0  0  0  0  0  0
  -39.8124   58.4554   64.9334 C   0  0  0  0  0  0  0  0  0  0  0  0
  -40.3016   59.6397   65.7116 C   0  0  0  0  0  0  0  0  0  0  0  0
  -40.5826   57.9151   63.9773 C   0  0  0  0  0  0  0  0  0  0  0  0
  -36.1395   57.6140   61.6688 C   0  0  0  0  0  0  0  0  0  0  0  0
  -35.2014   57.3396   62.8378 C   0  0  0  0  0  0  0  0  0  0  0  0
  -33.7675   57.5880   62.4220 C   0  0  0  0  0  0  0  0  0  0  0  0
  -32.9784   56.4873   61.7840 C   0  0  0  0  0  0  0  0  0  0  0  0
  -33.2031   58.7898   62.6115 C   0  0  0  0  0  0  0  0  0  0  0  0
  -31.5797   60.4581   61.9691 O   0  0  0  0  0  0  0  0  0  0  0  0
  -31.7739   59.0581   62.1984 C   0  0  0  0  0  0  0  0  0  0  0  0
  -30.6602   60.6180   61.7050 H   0  0  0  0  0  0  0  0  0  0  0  0
  6  7  1  0  0  0
 15 16  1  0  0  0
 15 17  1  0  0  0
  7  8  1  0  0  0
  7  9  2  0  0  0
  9  5  1  0  0  0
  5  4  1  0  0  0
  4  1  1  0  0  0
  1  2  1  0  0  0
  1  3  2  0  0  0
  3 10  1  0  0  0
 10 11  1  0  0  0
 11 12  1  0  0  0
 12 13  1  0  0  0
 12 14  2  0  0  0
 14 16  1  0  0  0
M  END
> <minimizedAffinity>
-6.97967

> <CNNscore>
0.5748049021

> <CNNaffinity>
5.6674122810

> <CNN_VS>
3.2576563358

> <CNNaffinity_variance>
0.0658565536

$$$$
/media/chris/experiments/cd1a-new-docking/inputs/ligands/6nux_ligand.pdb


 17 16  0  0  0  0  0  0  0  0999 V2000
  -37.7335   59.1576   61.9108 C   0  0  0  0  0  0  0  0  0  0  0  0
  -38.7474   59.8730   61.0640 C   0  0  0  0  0  0  0  0  0  0  0  0
  -37.2161   59.7789   62.9798 C   0  0  0  0  0  0  0  0  0  0  0  0
  -37.2985   57.7474   61.5718 C   0  0  0  0  0  0  0  0  0  0  0  0
  -36.3553   57.2020   62.6392 C   0  0  0  0  0  0  0  0  0  0  0  0
  -34.3035   58.3477   64.2783 C   0  0  0  0  0  0  0  0  0  0  0  0
  -33.9652   57.7909   62.9292 C   0  0  0  0  0  0  0  0  0  0  0  0
  -32.5486   57.8392   62.4411 C   0  0  0  0  0  0  0  0  0  0  0  0
  -34.9236   57.2556   62.1582 C   0  0  0  0  0  0  0  0  0  0  0  0
  -37.6506   61.1844   63.3267 C   0  0  0  0  0  0  0  0  0  0  0  0
  -36.5164   62.1662   63.0593 C   0  0  0  0  0  0  0  0  0  0  0  0
  -35.9236   62.6432   64.3676 C   0  0  0  0  0  0  0  0  0  0  0  0
  -34.5956   63.3346   64.3725 C   0  0  0  0  0  0  0  0  0  0  0  0
  -36.5844   62.4602   65.5203 C   0  0  0  0  0  0  0  0  0  0  0  0
  -36.8738   63.9100   67.4296 O   0  0  0  0  0  0  0  0  0  0  0  0
  -36.0104   62.9338   66.8361 C   0  0  0  0  0  0  0  0  0  0  0  0
  -36.4957   64.2062   68.2723 H   0  0  0  0  0  0  0  0  0  0  0  0
  6  7  1  0  0  0
 15 16  1  0  0  0
 15 17  1  0  0  0
  7  8  1  0  0  0
  7  9  2  0  0  0
  9  5  1  0  0  0
  5  4  1  0  0  0
  4  1  1  0  0  0
  1  2  1  0  0  0
  1  3  2  0  0  0
  3 10  1  0  0  0
 10 11  1  0  0  0
 11 12  1  0  0  0
 12 13  1  0  0  0
 12 14  2  0  0  0
 14 16  1  0  0  0
M  END
> <minimizedAffinity>
-6.43369

> <CNNscore>
0.5344702005

> <CNNaffinity>
5.2235798836

> <CNN_VS>
2.7918477058

> <CNNaffinity_variance>
0.0823479071

$$$$
