/media/chris/experiments/cd1a-new-docking/inputs/ligands/6nux_ligand.pdb


 17 16  0  0  0  0  0  0  0  0999 V2000
  -48.1246   58.4959   62.6667 C   0  0  0  0  0  0  0  0  0  0  0  0
  -49.5185   57.9377   62.7168 C   0  0  0  0  0  0  0  0  0  0  0  0
  -47.7217   59.3410   63.6260 C   0  0  0  0  0  0  0  0  0  0  0  0
  -47.1757   58.1097   61.5517 C   0  0  0  0  0  0  0  0  0  0  0  0
  -47.8435   58.2801   60.1911 C   0  0  0  0  0  0  0  0  0  0  0  0
  -46.2544   57.7408   57.8688 C   0  0  0  0  0  0  0  0  0  0  0  0
  -47.1961   56.7007   58.3940 C   0  0  0  0  0  0  0  0  0  0  0  0
  -47.3040   55.3782   57.6963 C   0  0  0  0  0  0  0  0  0  0  0  0
  -47.9431   56.9504   59.4797 C   0  0  0  0  0  0  0  0  0  0  0  0
  -48.6622   59.7257   64.7447 C   0  0  0  0  0  0  0  0  0  0  0  0
  -47.8739   60.0307   66.0126 C   0  0  0  0  0  0  0  0  0  0  0  0
  -47.3470   58.7474   66.6174 C   0  0  0  0  0  0  0  0  0  0  0  0
  -45.9281   58.6774   67.0904 C   0  0  0  0  0  0  0  0  0  0  0  0
  -48.1450   57.6767   66.7421 C   0  0  0  0  0  0  0  0  0  0  0  0
  -47.4468   55.4027   66.3264 O   0  0  0  0  0  0  0  0  0  0  0  0
  -47.6380   56.3879   67.3479 C   0  0  0  0  0  0  0  0  0  0  0  0
  -47.1217   54.5810   66.7264 H   0  0  0  0  0  0  0  0  0  0  0  0
  6  7  1  0  0  0
 15 16  1  0  0  0
 15 17  1  0  0  0
  7  8  1  0  0  0
  7  9  2  0  0  0
  9  5  1  0  0  0
  5  4  1  0  0  0
  4  1  1  0  0  0
  1  2  1  0  0  0
  1  3  2  0  0  0
  3 10  1  0  0  0
 10 11  1  0  0  0
 11 12  1  0  0  0
 12 13  1  0  0  0
 12 14  2  0  0  0
 14 16  1  0  0  0
M  END
> <minimizedAffinity>
-6.52257

> <CNNscore>
0.7743287086

> <CNNaffinity>
6.0726599693

> <CNN_VS>
4.7022347450

> <CNNaffinity_variance>
0.2942314148

$$$$
/media/chris/experiments/cd1a-new-docking/inputs/ligands/6nux_ligand.pdb


 17 16  0  0  0  0  0  0  0  0999 V2000
  -37.4088   57.9084   62.7003 C   0  0  0  0  0  0  0  0  0  0  0  0
  -37.1957   57.9460   61.2137 C   0  0  0  0  0  0  0  0  0  0  0  0
  -38.4029   57.1620   63.2017 C   0  0  0  0  0  0  0  0  0  0  0  0
  -36.5121   58.6972   63.6311 C   0  0  0  0  0  0  0  0  0  0  0  0
  -35.2907   57.8751   64.0295 C   0  0  0  0  0  0  0  0  0  0  0  0
  -33.6351   56.9886   61.8657 C   0  0  0  0  0  0  0  0  0  0  0  0
  -33.2472   58.1955   62.6640 C   0  0  0  0  0  0  0  0  0  0  0  0
  -31.9873   58.9343   62.3261 C   0  0  0  0  0  0  0  0  0  0  0  0
  -34.0188   58.6122   63.6790 C   0  0  0  0  0  0  0  0  0  0  0  0
  -39.2978   56.3679   62.2782 C   0  0  0  0  0  0  0  0  0  0  0  0
  -40.6939   56.9778   62.2463 C   0  0  0  0  0  0  0  0  0  0  0  0
  -41.6116   56.2226   63.1832 C   0  0  0  0  0  0  0  0  0  0  0  0
  -41.5119   54.7317   63.2783 C   0  0  0  0  0  0  0  0  0  0  0  0
  -42.5056   56.8804   63.9360 C   0  0  0  0  0  0  0  0  0  0  0  0
  -43.3216   56.6893   66.2007 O   0  0  0  0  0  0  0  0  0  0  0  0
  -43.4274   56.1438   64.8810 C   0  0  0  0  0  0  0  0  0  0  0  0
  -43.9168   56.2093   66.7976 H   0  0  0  0  0  0  0  0  0  0  0  0
  6  7  1  0  0  0
 15 16  1  0  0  0
 15 17  1  0  0  0
  7  8  1  0  0  0
  7  9  2  0  0  0
  9  5  1  0  0  0
  5  4  1  0  0  0
  4  1  1  0  0  0
  1  2  1  0  0  0
  1  3  2  0  0  0
  3 10  1  0  0  0
 10 11  1  0  0  0
 11 12  1  0  0  0
 12 13  1  0  0  0
 12 14  2  0  0  0
 14 16  1  0  0  0
M  END
> <minimizedAffinity>
-6.52734

> <CNNscore>
0.7642664909

> <CNNaffinity>
5.7745218277

> <CNN_VS>
4.4132733345

> <CNNaffinity_variance>
0.0050824443

$$$$
/media/chris/experiments/cd1a-new-docking/inputs/ligands/6nux_ligand.pdb


 17 16  0  0  0  0  0  0  0  0999 V2000
  -49.9859   58.4657   61.1628 C   0  0  0  0  0  0  0  0  0  0  0  0
  -49.9142   59.9554   60.9829 C   0  0  0  0  0  0  0  0  0  0  0  0
  -49.6684   57.9325   62.3509 C   0  0  0  0  0  0  0  0  0  0  0  0
  -50.4165   57.5680   60.0220 C   0  0  0  0  0  0  0  0  0  0  0  0
  -49.3101   56.5809   59.6644 C   0  0  0  0  0  0  0  0  0  0  0  0
  -46.6084   57.3795   60.1860 C   0  0  0  0  0  0  0  0  0  0  0  0
  -47.1773   57.5067   58.8059 C   0  0  0  0  0  0  0  0  0  0  0  0
  -46.3262   58.0564   57.7009 C   0  0  0  0  0  0  0  0  0  0  0  0
  -48.4423   57.1357   58.5585 C   0  0  0  0  0  0  0  0  0  0  0  0
  -49.2435   58.8237   63.4952 C   0  0  0  0  0  0  0  0  0  0  0  0
  -49.8041   58.2947   64.8097 C   0  0  0  0  0  0  0  0  0  0  0  0
  -48.7179   58.2658   65.8630 C   0  0  0  0  0  0  0  0  0  0  0  0
  -47.8751   59.4817   66.0938 C   0  0  0  0  0  0  0  0  0  0  0  0
  -48.5124   57.1628   66.5978 C   0  0  0  0  0  0  0  0  0  0  0  0
  -46.4722   56.1057   67.3404 O   0  0  0  0  0  0  0  0  0  0  0  0
  -47.4354   57.1168   67.6576 C   0  0  0  0  0  0  0  0  0  0  0  0
  -45.7869   56.0854   68.0266 H   0  0  0  0  0  0  0  0  0  0  0  0
  6  7  1  0  0  0
 15 16  1  0  0  0
 15 17  1  0  0  0
  7  8  1  0  0  0
  7  9  2  0  0  0
  9  5  1  0  0  0
  5  4  1  0  0  0
  4  1  1  0  0  0
  1  2  1  0  0  0
  1  3  2  0  0  0
  3 10  1  0  0  0
 10 11  1  0  0  0
 11 12  1  0  0  0
 12 13  1  0  0  0
 12 14  2  0  0  0
 14 16  1  0  0  0
M  END
> <minimizedAffinity>
-7.57380

> <CNNscore>
0.7410461307

> <CNNaffinity>
5.9711265564

> <CNN_VS>
4.4248800278

> <CNNaffinity_variance>
0.1549325436

$$$$
/media/chris/experiments/cd1a-new-docking/inputs/ligands/6nux_ligand.pdb


 17 16  0  0  0  0  0  0  0  0999 V2000
  -38.4078   57.5200   61.4324 C   0  0  0  0  0  0  0  0  0  0  0  0
  -39.4685   58.1556   60.5792 C   0  0  0  0  0  0  0  0  0  0  0  0
  -38.7612   56.6015   62.3424 C   0  0  0  0  0  0  0  0  0  0  0  0
  -36.9517   57.9021   61.2698 C   0  0  0  0  0  0  0  0  0  0  0  0
  -36.0865   57.1832   62.2998 C   0  0  0  0  0  0  0  0  0  0  0  0
  -34.5435   58.7837   64.1071 C   0  0  0  0  0  0  0  0  0  0  0  0
  -33.9019   58.1957   62.8877 C   0  0  0  0  0  0  0  0  0  0  0  0
  -32.4497   58.4516   62.6175 C   0  0  0  0  0  0  0  0  0  0  0  0
  -34.6217   57.4475   62.0383 C   0  0  0  0  0  0  0  0  0  0  0  0
  -40.2123   56.2117   62.5054 C   0  0  0  0  0  0  0  0  0  0  0  0
  -40.7150   56.6217   63.8843 C   0  0  0  0  0  0  0  0  0  0  0  0
  -42.1959   56.9282   63.8268 C   0  0  0  0  0  0  0  0  0  0  0  0
  -42.8294   57.2871   62.5185 C   0  0  0  0  0  0  0  0  0  0  0  0
  -42.9458   56.8702   64.9372 C   0  0  0  0  0  0  0  0  0  0  0  0
  -45.1560   56.1451   65.5859 O   0  0  0  0  0  0  0  0  0  0  0  0
  -44.4273   57.1684   64.8986 C   0  0  0  0  0  0  0  0  0  0  0  0
  -46.1042   56.3469   65.5546 H   0  0  0  0  0  0  0  0  0  0  0  0
  6  7  1  0  0  0
 15 16  1  0  0  0
 15 17  1  0  0  0
  7  8  1  0  0  0
  7  9  2  0  0  0
  9  5  1  0  0  0
  5  4  1  0  0  0
  4  1  1  0  0  0
  1  2  1  0  0  0
  1  3  2  0  0  0
  3 10  1  0  0  0
 10 11  1  0  0  0
 11 12  1  0  0  0
 12 13  1  0  0  0
 12 14  2  0  0  0
 14 16  1  0  0  0
M  END
> <minimizedAffinity>
-6.99860

> <CNNscore>
0.6357453465

> <CNNaffinity>
5.7101597786

> <CNN_VS>
3.6302075386

> <CNNaffinity_variance>
0.0173691791

$$$$
/media/chris/experiments/cd1a-new-docking/inputs/ligands/6nux_ligand.pdb


 17 16  0  0  0  0  0  0  0  0999 V2000
  -38.4552   57.5397   61.3778 C   0  0  0  0  0  0  0  0  0  0  0  0
  -39.4822   58.2700   60.5600 C   0  0  0  0  0  0  0  0  0  0  0  0
  -38.8542   56.5907   62.2362 C   0  0  0  0  0  0  0  0  0  0  0  0
  -36.9823   57.8611   61.2371 C   0  0  0  0  0  0  0  0  0  0  0  0
  -36.1778   57.2087   62.3566 C   0  0  0  0  0  0  0  0  0  0  0  0
  -34.6464   58.6179   64.3259 C   0  0  0  0  0  0  0  0  0  0  0  0
  -33.9852   58.1086   63.0817 C   0  0  0  0  0  0  0  0  0  0  0  0
  -32.5194   58.3427   62.8722 C   0  0  0  0  0  0  0  0  0  0  0  0
  -34.6994   57.4502   62.1567 C   0  0  0  0  0  0  0  0  0  0  0  0
  -40.3225   56.2613   62.3769 C   0  0  0  0  0  0  0  0  0  0  0  0
  -40.7567   56.4064   63.8304 C   0  0  0  0  0  0  0  0  0  0  0  0
  -40.9015   57.8704   64.1851 C   0  0  0  0  0  0  0  0  0  0  0  0
  -41.8537   58.7306   63.4135 C   0  0  0  0  0  0  0  0  0  0  0  0
  -40.1910   58.3995   65.1920 C   0  0  0  0  0  0  0  0  0  0  0  0
  -39.1242   60.3224   66.1900 O   0  0  0  0  0  0  0  0  0  0  0  0
  -40.3256   59.8585   65.5640 C   0  0  0  0  0  0  0  0  0  0  0  0
  -39.2222   61.2586   66.4240 H   0  0  0  0  0  0  0  0  0  0  0  0
  6  7  1  0  0  0
 15 16  1  0  0  0
 15 17  1  0  0  0
  7  8  1  0  0  0
  7  9  2  0  0  0
  9  5  1  0  0  0
  5  4  1  0  0  0
  4  1  1  0  0  0
  1  2  1  0  0  0
  1  3  2  0  0  0
  3 10  1  0  0  0
 10 11  1  0  0  0
 11 12  1  0  0  0
 12 13  1  0  0  0
 12 14  2  0  0  0
 14 16  1  0  0  0
M  END
> <minimizedAffinity>
-6.84662

> <CNNscore>
0.6279720068

> <CNNaffinity>
5.5889620781

> <CNN_VS>
3.5097117424

> <CNNaffinity_variance>
0.0250658002

$$$$
/media/chris/experiments/cd1a-new-docking/inputs/ligands/6nux_ligand.pdb


 17 16  0  0  0  0  0  0  0  0999 V2000
  -49.6950   58.9256   64.5307 C   0  0  0  0  0  0  0  0  0  0  0  0
  -49.5575   60.4109   64.3520 C   0  0  0  0  0  0  0  0  0  0  0  0
  -49.4907   58.1171   63.4813 C   0  0  0  0  0  0  0  0  0  0  0  0
  -50.0545   58.3381   65.8792 C   0  0  0  0  0  0  0  0  0  0  0  0
  -48.9487   57.4136   66.3776 C   0  0  0  0  0  0  0  0  0  0  0  0
  -46.3106   57.3444   65.2619 C   0  0  0  0  0  0  0  0  0  0  0  0
  -46.5941   58.1819   66.4713 C   0  0  0  0  0  0  0  0  0  0  0  0
  -45.4896   58.9807   67.0954 C   0  0  0  0  0  0  0  0  0  0  0  0
  -47.8274   58.2151   66.9976 C   0  0  0  0  0  0  0  0  0  0  0  0
  -49.1259   58.6970   62.1342 C   0  0  0  0  0  0  0  0  0  0  0  0
  -47.7144   58.2746   61.7449 C   0  0  0  0  0  0  0  0  0  0  0  0
  -47.6896   57.8135   60.3037 C   0  0  0  0  0  0  0  0  0  0  0  0
  -46.6921   58.4002   59.3536 C   0  0  0  0  0  0  0  0  0  0  0  0
  -48.5475   56.8760   59.8749 C   0  0  0  0  0  0  0  0  0  0  0  0
  -48.0586   55.0507   58.3714 O   0  0  0  0  0  0  0  0  0  0  0  0
  -48.5346   56.3995   58.4404 C   0  0  0  0  0  0  0  0  0  0  0  0
  -48.0547   54.7561   57.4472 H   0  0  0  0  0  0  0  0  0  0  0  0
  6  7  1  0  0  0
 15 16  1  0  0  0
 15 17  1  0  0  0
  7  8  1  0  0  0
  7  9  2  0  0  0
  9  5  1  0  0  0
  5  4  1  0  0  0
  4  1  1  0  0  0
  1  2  1  0  0  0
  1  3  2  0  0  0
  3 10  1  0  0  0
 10 11  1  0  0  0
 11 12  1  0  0  0
 12 13  1  0  0  0
 12 14  2  0  0  0
 14 16  1  0  0  0
M  END
> <minimizedAffinity>
-6.48391

> <CNNscore>
0.5933883786

> <CNNaffinity>
6.0434041023

> <CNN_VS>
3.5860857964

> <CNNaffinity_variance>
0.1844046563

$$$$
/media/chris/experiments/cd1a-new-docking/inputs/ligands/6nux_ligand.pdb


 17 16  0  0  0  0  0  0  0  0999 V2000
  -37.5763   57.2565   63.5696 C   0  0  0  0  0  0  0  0  0  0  0  0
  -38.5709   57.6663   64.6182 C   0  0  0  0  0  0  0  0  0  0  0  0
  -38.0180   56.7867   62.3945 C   0  0  0  0  0  0  0  0  0  0  0  0
  -36.0886   57.3745   63.8256 C   0  0  0  0  0  0  0  0  0  0  0  0
  -35.3047   57.2461   62.5236 C   0  0  0  0  0  0  0  0  0  0  0  0
  -32.5753   56.4833   62.1024 C   0  0  0  0  0  0  0  0  0  0  0  0
  -32.9369   57.9288   62.2579 C   0  0  0  0  0  0  0  0  0  0  0  0
  -31.8628   58.9727   62.1945 C   0  0  0  0  0  0  0  0  0  0  0  0
  -34.2134   58.2895   62.4572 C   0  0  0  0  0  0  0  0  0  0  0  0
  -39.5018   56.6720   62.1308 C   0  0  0  0  0  0  0  0  0  0  0  0
  -39.8964   57.5562   60.9541 C   0  0  0  0  0  0  0  0  0  0  0  0
  -40.0875   58.9837   61.4187 C   0  0  0  0  0  0  0  0  0  0  0  0
  -39.2031   60.0647   60.8793 C   0  0  0  0  0  0  0  0  0  0  0  0
  -41.0500   59.2882   62.3017 C   0  0  0  0  0  0  0  0  0  0  0  0
  -40.9273   60.8226   64.1623 O   0  0  0  0  0  0  0  0  0  0  0  0
  -41.2591   60.7089   62.7739 C   0  0  0  0  0  0  0  0  0  0  0  0
  -41.0652   61.7374   64.4538 H   0  0  0  0  0  0  0  0  0  0  0  0
  6  7  1  0  0  0
 15 16  1  0  0  0
 15 17  1  0  0  0
  7  8  1  0  0  0
  7  9  2  0  0  0
  9  5  1  0  0  0
  5  4  1  0  0  0
  4  1  1  0  0  0
  1  2  1  0  0  0
  1  3  2  0  0  0
  3 10  1  0  0  0
 10 11  1  0  0  0
 11 12  1  0  0  0
 12 13  1  0  0  0
 12 14  2  0  0  0
 14 16  1  0  0  0
M  END
> <minimizedAffinity>
-6.75548

> <CNNscore>
0.5870147943

> <CNNaffinity>
5.4884405136

> <CNN_VS>
3.2217957973

> <CNNaffinity_variance>
0.0582896769

$$$$
/media/chris/experiments/cd1a-new-docking/inputs/ligands/6nux_ligand.pdb


 17 16  0  0  0  0  0  0  0  0999 V2000
  -49.0541   60.0246   62.1144 C   0  0  0  0  0  0  0  0  0  0  0  0
  -49.5317   58.6002   62.1012 C   0  0  0  0  0  0  0  0  0  0  0  0
  -49.0985   60.7206   63.2591 C   0  0  0  0  0  0  0  0  0  0  0  0
  -48.5213   60.6741   60.8547 C   0  0  0  0  0  0  0  0  0  0  0  0
  -47.0869   60.2317   60.5843 C   0  0  0  0  0  0  0  0  0  0  0  0
  -46.2136   57.5215   60.2668 C   0  0  0  0  0  0  0  0  0  0  0  0
  -46.5662   58.3438   59.0651 C   0  0  0  0  0  0  0  0  0  0  0  0
  -46.4569   57.7416   57.6966 C   0  0  0  0  0  0  0  0  0  0  0  0
  -46.9734   59.6135   59.2098 C   0  0  0  0  0  0  0  0  0  0  0  0
  -49.6238   60.0760   64.5212 C   0  0  0  0  0  0  0  0  0  0  0  0
  -48.4673   59.6945   65.4372 C   0  0  0  0  0  0  0  0  0  0  0  0
  -48.7284   58.3437   66.0676 C   0  0  0  0  0  0  0  0  0  0  0  0
  -50.1313   57.8304   66.1687 C   0  0  0  0  0  0  0  0  0  0  0  0
  -47.7114   57.5995   66.5263 C   0  0  0  0  0  0  0  0  0  0  0  0
  -47.5202   55.2059   66.2703 O   0  0  0  0  0  0  0  0  0  0  0  0
  -47.9522   56.2459   67.1548 C   0  0  0  0  0  0  0  0  0  0  0  0
  -47.6795   54.3430   66.6837 H   0  0  0  0  0  0  0  0  0  0  0  0
  6  7  1  0  0  0
 15 16  1  0  0  0
 15 17  1  0  0  0
  7  8  1  0  0  0
  7  9  2  0  0  0
  9  5  1  0  0  0
  5  4  1  0  0  0
  4  1  1  0  0  0
  1  2  1  0  0  0
  1  3  2  0  0  0
  3 10  1  0  0  0
 10 11  1  0  0  0
 11 12  1  0  0  0
 12 13  1  0  0  0
 12 14  2  0  0  0
 14 16  1  0  0  0
M  END
> <minimizedAffinity>
-7.16413

> <CNNscore>
0.5404222012

> <CNNaffinity>
5.7433109283

> <CNN_VS>
3.1038126945

> <CNNaffinity_variance>
0.1537816226

$$$$
/media/chris/experiments/cd1a-new-docking/inputs/ligands/6nux_ligand.pdb


 17 16  0  0  0  0  0  0  0  0999 V2000
  -35.8305   57.8505   62.4856 C   0  0  0  0  0  0  0  0  0  0  0  0
  -34.4736   57.4602   61.9725 C   0  0  0  0  0  0  0  0  0  0  0  0
  -35.9277   58.8014   63.4253 C   0  0  0  0  0  0  0  0  0  0  0  0
  -37.0813   57.1868   61.9493 C   0  0  0  0  0  0  0  0  0  0  0  0
  -38.2327   57.3240   62.9401 C   0  0  0  0  0  0  0  0  0  0  0  0
  -40.5278   58.5783   61.7704 C   0  0  0  0  0  0  0  0  0  0  0  0
  -40.4899   57.0907   61.9432 C   0  0  0  0  0  0  0  0  0  0  0  0
  -41.6600   56.2631   61.5033 C   0  0  0  0  0  0  0  0  0  0  0  0
  -39.4179   56.5002   62.4922 C   0  0  0  0  0  0  0  0  0  0  0  0
  -34.6833   59.4718   63.9605 C   0  0  0  0  0  0  0  0  0  0  0  0
  -35.0365   60.8193   64.5783 C   0  0  0  0  0  0  0  0  0  0  0  0
  -34.7198   61.9349   63.6060 C   0  0  0  0  0  0  0  0  0  0  0  0
  -35.7648   62.9576   63.2836 C   0  0  0  0  0  0  0  0  0  0  0  0
  -33.5069   62.0196   63.0400 C   0  0  0  0  0  0  0  0  0  0  0  0
  -31.7946   63.0474   61.6825 O   0  0  0  0  0  0  0  0  0  0  0  0
  -33.1706   63.1294   62.0703 C   0  0  0  0  0  0  0  0  0  0  0  0
  -31.5906   63.7637   61.0610 H   0  0  0  0  0  0  0  0  0  0  0  0
  6  7  1  0  0  0
 15 16  1  0  0  0
 15 17  1  0  0  0
  7  8  1  0  0  0
  7  9  2  0  0  0
  9  5  1  0  0  0
  5  4  1  0  0  0
  4  1  1  0  0  0
  1  2  1  0  0  0
  1  3  2  0  0  0
  3 10  1  0  0  0
 10 11  1  0  0  0
 11 12  1  0  0  0
 12 13  1  0  0  0
 12 14  2  0  0  0
 14 16  1  0  0  0
M  END
> <minimizedAffinity>
-6.57402

> <CNNscore>
0.5336441398

> <CNNaffinity>
5.2880291939

> <CNN_VS>
2.8219258785

> <CNNaffinity_variance>
0.1007541269

$$$$
