/media/chris/experiments/cd1a-new-docking/inputs/ligands/6nux_ligand.pdb


 17 16  0  0  0  0  0  0  0  0999 V2000
  -49.0827   58.1417   61.7824 C   0  0  0  0  0  0  0  0  0  0  0  0
  -49.9265   57.9888   60.5489 C   0  0  0  0  0  0  0  0  0  0  0  0
  -47.7802   58.4310   61.6544 C   0  0  0  0  0  0  0  0  0  0  0  0
  -49.6891   57.9782   63.1602 C   0  0  0  0  0  0  0  0  0  0  0  0
  -48.8126   58.6408   64.2181 C   0  0  0  0  0  0  0  0  0  0  0  0
  -47.1671   59.4265   66.4280 C   0  0  0  0  0  0  0  0  0  0  0  0
  -47.7620   58.0522   66.3844 C   0  0  0  0  0  0  0  0  0  0  0  0
  -47.4893   57.0906   67.5016 C   0  0  0  0  0  0  0  0  0  0  0  0
  -48.5312   57.6802   65.3504 C   0  0  0  0  0  0  0  0  0  0  0  0
  -47.1703   58.6012   60.2820 C   0  0  0  0  0  0  0  0  0  0  0  0
  -46.2601   57.4218   59.9614 C   0  0  0  0  0  0  0  0  0  0  0  0
  -46.5819   56.8765   58.5869 C   0  0  0  0  0  0  0  0  0  0  0  0
  -46.1314   57.6211   57.3687 C   0  0  0  0  0  0  0  0  0  0  0  0
  -47.2582   55.7260   58.4531 C   0  0  0  0  0  0  0  0  0  0  0  0
  -48.7402   55.8141   56.5485 O   0  0  0  0  0  0  0  0  0  0  0  0
  -47.5847   55.1632   57.0886 C   0  0  0  0  0  0  0  0  0  0  0  0
  -48.9398   55.4451   55.6739 H   0  0  0  0  0  0  0  0  0  0  0  0
  6  7  1  0  0  0
 15 16  1  0  0  0
 15 17  1  0  0  0
  7  8  1  0  0  0
  7  9  2  0  0  0
  9  5  1  0  0  0
  5  4  1  0  0  0
  4  1  1  0  0  0
  1  2  1  0  0  0
  1  3  2  0  0  0
  3 10  1  0  0  0
 10 11  1  0  0  0
 11 12  1  0  0  0
 12 13  1  0  0  0
 12 14  2  0  0  0
 14 16  1  0  0  0
M  END
> <minimizedAffinity>
-7.17104

> <CNNscore>
0.8075709939

> <CNNaffinity>
6.2826681137

> <CNN_VS>
5.0737004280

> <CNNaffinity_variance>
0.2305830419

$$$$
/media/chris/experiments/cd1a-new-docking/inputs/ligands/6nux_ligand.pdb


 17 16  0  0  0  0  0  0  0  0999 V2000
  -50.0257   58.3860   60.8682 C   0  0  0  0  0  0  0  0  0  0  0  0
  -50.0359   59.8883   60.8732 C   0  0  0  0  0  0  0  0  0  0  0  0
  -49.7675   57.7282   62.0072 C   0  0  0  0  0  0  0  0  0  0  0  0
  -50.3086   57.6142   59.5967 C   0  0  0  0  0  0  0  0  0  0  0  0
  -49.2393   56.5526   59.3601 C   0  0  0  0  0  0  0  0  0  0  0  0
  -48.2812   56.3697   56.6661 C   0  0  0  0  0  0  0  0  0  0  0  0
  -47.4876   57.1113   57.6980 C   0  0  0  0  0  0  0  0  0  0  0  0
  -46.1890   57.7543   57.3136 C   0  0  0  0  0  0  0  0  0  0  0  0
  -47.9321   57.1973   58.9606 C   0  0  0  0  0  0  0  0  0  0  0  0
  -49.4901   58.4929   63.2810 C   0  0  0  0  0  0  0  0  0  0  0  0
  -48.1886   58.0111   63.9104 C   0  0  0  0  0  0  0  0  0  0  0  0
  -48.4079   57.6878   65.3725 C   0  0  0  0  0  0  0  0  0  0  0  0
  -49.7429   57.9476   65.9982 C   0  0  0  0  0  0  0  0  0  0  0  0
  -47.4179   57.1607   66.1081 C   0  0  0  0  0  0  0  0  0  0  0  0
  -47.1594   57.9051   68.3907 O   0  0  0  0  0  0  0  0  0  0  0  0
  -47.6194   56.8267   67.5686 C   0  0  0  0  0  0  0  0  0  0  0  0
  -47.2936   57.6797   69.3246 H   0  0  0  0  0  0  0  0  0  0  0  0
  6  7  1  0  0  0
 15 16  1  0  0  0
 15 17  1  0  0  0
  7  8  1  0  0  0
  7  9  2  0  0  0
  9  5  1  0  0  0
  5  4  1  0  0  0
  4  1  1  0  0  0
  1  2  1  0  0  0
  1  3  2  0  0  0
  3 10  1  0  0  0
 10 11  1  0  0  0
 11 12  1  0  0  0
 12 13  1  0  0  0
 12 14  2  0  0  0
 14 16  1  0  0  0
M  END
> <minimizedAffinity>
-7.92413

> <CNNscore>
0.8024082184

> <CNNaffinity>
6.0931868553

> <CNN_VS>
4.8892230988

> <CNNaffinity_variance>
0.1368153989

$$$$
/media/chris/experiments/cd1a-new-docking/inputs/ligands/6nux_ligand.pdb


 17 16  0  0  0  0  0  0  0  0999 V2000
  -48.6243   58.5606   60.8002 C   0  0  0  0  0  0  0  0  0  0  0  0
  -50.0215   58.4827   60.2536 C   0  0  0  0  0  0  0  0  0  0  0  0
  -48.4194   58.3534   62.1086 C   0  0  0  0  0  0  0  0  0  0  0  0
  -47.4528   58.8638   59.8901 C   0  0  0  0  0  0  0  0  0  0  0  0
  -46.4627   57.7037   59.8796 C   0  0  0  0  0  0  0  0  0  0  0  0
  -46.1612   57.4376   57.0428 C   0  0  0  0  0  0  0  0  0  0  0  0
  -46.9013   56.3936   57.8218 C   0  0  0  0  0  0  0  0  0  0  0  0
  -47.4849   55.2113   57.1084 C   0  0  0  0  0  0  0  0  0  0  0  0
  -47.0462   56.5159   59.1497 C   0  0  0  0  0  0  0  0  0  0  0  0
  -49.5840   58.0446   63.0211 C   0  0  0  0  0  0  0  0  0  0  0  0
  -49.5254   58.9243   64.2641 C   0  0  0  0  0  0  0  0  0  0  0  0
  -49.2239   58.0802   65.4835 C   0  0  0  0  0  0  0  0  0  0  0  0
  -50.3380   57.6668   66.3941 C   0  0  0  0  0  0  0  0  0  0  0  0
  -47.9677   57.6915   65.7476 C   0  0  0  0  0  0  0  0  0  0  0  0
  -46.5108   56.0147   66.6947 O   0  0  0  0  0  0  0  0  0  0  0  0
  -47.6479   56.8443   66.9580 C   0  0  0  0  0  0  0  0  0  0  0  0
  -46.3153   55.4762   67.4776 H   0  0  0  0  0  0  0  0  0  0  0  0
  6  7  1  0  0  0
 15 16  1  0  0  0
 15 17  1  0  0  0
  7  8  1  0  0  0
  7  9  2  0  0  0
  9  5  1  0  0  0
  5  4  1  0  0  0
  4  1  1  0  0  0
  1  2  1  0  0  0
  1  3  2  0  0  0
  3 10  1  0  0  0
 10 11  1  0  0  0
 11 12  1  0  0  0
 12 13  1  0  0  0
 12 14  2  0  0  0
 14 16  1  0  0  0
M  END
> <minimizedAffinity>
-7.23017

> <CNNscore>
0.7627337575

> <CNNaffinity>
6.0753197670

> <CNN_VS>
4.6338515282

> <CNNaffinity_variance>
0.1615383178

$$$$
/media/chris/experiments/cd1a-new-docking/inputs/ligands/6nux_ligand.pdb


 17 16  0  0  0  0  0  0  0  0999 V2000
  -49.9767   58.4497   60.9518 C   0  0  0  0  0  0  0  0  0  0  0  0
  -50.0074   59.9511   60.9102 C   0  0  0  0  0  0  0  0  0  0  0  0
  -49.6923   57.8312   62.1065 C   0  0  0  0  0  0  0  0  0  0  0  0
  -50.2680   57.6348   59.7094 C   0  0  0  0  0  0  0  0  0  0  0  0
  -49.2026   56.5628   59.5045 C   0  0  0  0  0  0  0  0  0  0  0  0
  -46.5169   57.4674   59.9262 C   0  0  0  0  0  0  0  0  0  0  0  0
  -47.0569   57.3368   58.5348 C   0  0  0  0  0  0  0  0  0  0  0  0
  -46.1854   57.6846   57.3657 C   0  0  0  0  0  0  0  0  0  0  0  0
  -48.3144   56.9156   58.3337 C   0  0  0  0  0  0  0  0  0  0  0  0
  -49.4063   58.6390   63.3515 C   0  0  0  0  0  0  0  0  0  0  0  0
  -48.1232   58.1499   64.0121 C   0  0  0  0  0  0  0  0  0  0  0  0
  -48.4363   57.5235   65.3537 C   0  0  0  0  0  0  0  0  0  0  0  0
  -49.6676   57.9384   66.0975 C   0  0  0  0  0  0  0  0  0  0  0  0
  -47.6244   56.5920   65.8752 C   0  0  0  0  0  0  0  0  0  0  0  0
  -47.1164   56.5439   68.2355 O   0  0  0  0  0  0  0  0  0  0  0  0
  -47.9232   55.9515   67.2115 C   0  0  0  0  0  0  0  0  0  0  0  0
  -47.3166   56.1254   69.0874 H   0  0  0  0  0  0  0  0  0  0  0  0
  6  7  1  0  0  0
 15 16  1  0  0  0
 15 17  1  0  0  0
  7  8  1  0  0  0
  7  9  2  0  0  0
  9  5  1  0  0  0
  5  4  1  0  0  0
  4  1  1  0  0  0
  1  2  1  0  0  0
  1  3  2  0  0  0
  3 10  1  0  0  0
 10 11  1  0  0  0
 11 12  1  0  0  0
 12 13  1  0  0  0
 12 14  2  0  0  0
 14 16  1  0  0  0
M  END
> <minimizedAffinity>
-7.90518

> <CNNscore>
0.7360336781

> <CNNaffinity>
5.9992241859

> <CNN_VS>
4.4156308174

> <CNNaffinity_variance>
0.0925469026

$$$$
/media/chris/experiments/cd1a-new-docking/inputs/ligands/6nux_ligand.pdb


 17 16  0  0  0  0  0  0  0  0999 V2000
  -38.4222   57.5696   61.3697 C   0  0  0  0  0  0  0  0  0  0  0  0
  -39.4122   58.2389   60.4593 C   0  0  0  0  0  0  0  0  0  0  0  0
  -38.8557   56.6634   62.2572 C   0  0  0  0  0  0  0  0  0  0  0  0
  -36.9476   57.9040   61.2895 C   0  0  0  0  0  0  0  0  0  0  0  0
  -36.1685   57.1755   62.3797 C   0  0  0  0  0  0  0  0  0  0  0  0
  -34.6482   58.7946   64.1897 C   0  0  0  0  0  0  0  0  0  0  0  0
  -33.9728   58.1206   63.0346 C   0  0  0  0  0  0  0  0  0  0  0  0
  -32.4987   58.3005   62.8301 C   0  0  0  0  0  0  0  0  0  0  0  0
  -34.6818   57.3636   62.1841 C   0  0  0  0  0  0  0  0  0  0  0  0
  -40.3256   56.3210   62.3382 C   0  0  0  0  0  0  0  0  0  0  0  0
  -40.8024   56.3895   63.7839 C   0  0  0  0  0  0  0  0  0  0  0  0
  -41.2143   57.8045   64.1280 C   0  0  0  0  0  0  0  0  0  0  0  0
  -41.9305   58.6374   63.1107 C   0  0  0  0  0  0  0  0  0  0  0  0
  -40.9516   58.3131   65.3409 C   0  0  0  0  0  0  0  0  0  0  0  0
  -40.2065   60.4971   66.0523 O   0  0  0  0  0  0  0  0  0  0  0  0
  -41.3595   59.7225   65.7046 C   0  0  0  0  0  0  0  0  0  0  0  0
  -40.4803   61.3986   66.2836 H   0  0  0  0  0  0  0  0  0  0  0  0
  6  7  1  0  0  0
 15 16  1  0  0  0
 15 17  1  0  0  0
  7  8  1  0  0  0
  7  9  2  0  0  0
  9  5  1  0  0  0
  5  4  1  0  0  0
  4  1  1  0  0  0
  1  2  1  0  0  0
  1  3  2  0  0  0
  3 10  1  0  0  0
 10 11  1  0  0  0
 11 12  1  0  0  0
 12 13  1  0  0  0
 12 14  2  0  0  0
 14 16  1  0  0  0
M  END
> <minimizedAffinity>
-6.83421

> <CNNscore>
0.7178101540

> <CNNaffinity>
5.7561964989

> <CNN_VS>
4.1318564415

> <CNNaffinity_variance>
0.0067976392

$$$$
/media/chris/experiments/cd1a-new-docking/inputs/ligands/6nux_ligand.pdb


 17 16  0  0  0  0  0  0  0  0999 V2000
  -38.3869   57.5381   61.4234 C   0  0  0  0  0  0  0  0  0  0  0  0
  -39.4903   58.1298   60.5932 C   0  0  0  0  0  0  0  0  0  0  0  0
  -38.6862   56.6221   62.3551 C   0  0  0  0  0  0  0  0  0  0  0  0
  -36.9483   57.9611   61.2136 C   0  0  0  0  0  0  0  0  0  0  0  0
  -36.0314   57.2761   62.2218 C   0  0  0  0  0  0  0  0  0  0  0  0
  -33.3295   56.4366   61.7701 C   0  0  0  0  0  0  0  0  0  0  0  0
  -33.6094   57.7818   62.3673 C   0  0  0  0  0  0  0  0  0  0  0  0
  -32.4683   58.6841   62.7293 C   0  0  0  0  0  0  0  0  0  0  0  0
  -34.8730   58.1773   62.5821 C   0  0  0  0  0  0  0  0  0  0  0  0
  -40.1196   56.1914   62.5653 C   0  0  0  0  0  0  0  0  0  0  0  0
  -40.6026   56.6270   63.9434 C   0  0  0  0  0  0  0  0  0  0  0  0
  -42.1003   56.8436   63.9238 C   0  0  0  0  0  0  0  0  0  0  0  0
  -42.7439   57.4727   62.7274 C   0  0  0  0  0  0  0  0  0  0  0  0
  -42.8554   56.4661   64.9660 C   0  0  0  0  0  0  0  0  0  0  0  0
  -44.8831   56.4667   66.2774 O   0  0  0  0  0  0  0  0  0  0  0  0
  -44.3533   56.6699   64.9627 C   0  0  0  0  0  0  0  0  0  0  0  0
  -45.8439   56.5999   66.2630 H   0  0  0  0  0  0  0  0  0  0  0  0
  6  7  1  0  0  0
 15 16  1  0  0  0
 15 17  1  0  0  0
  7  8  1  0  0  0
  7  9  2  0  0  0
  9  5  1  0  0  0
  5  4  1  0  0  0
  4  1  1  0  0  0
  1  2  1  0  0  0
  1  3  2  0  0  0
  3 10  1  0  0  0
 10 11  1  0  0  0
 11 12  1  0  0  0
 12 13  1  0  0  0
 12 14  2  0  0  0
 14 16  1  0  0  0
M  END
> <minimizedAffinity>
-7.03441

> <CNNscore>
0.7177453637

> <CNNaffinity>
5.7764959335

> <CNN_VS>
4.1460533142

> <CNNaffinity_variance>
0.0616243295

$$$$
/media/chris/experiments/cd1a-new-docking/inputs/ligands/6nux_ligand.pdb


 17 16  0  0  0  0  0  0  0  0999 V2000
  -36.8402   58.0431   62.2880 C   0  0  0  0  0  0  0  0  0  0  0  0
  -35.6289   57.1715   62.4613 C   0  0  0  0  0  0  0  0  0  0  0  0
  -37.0659   59.0337   63.1623 C   0  0  0  0  0  0  0  0  0  0  0  0
  -37.7986   57.8167   61.1378 C   0  0  0  0  0  0  0  0  0  0  0  0
  -39.2286   58.1463   61.5536 C   0  0  0  0  0  0  0  0  0  0  0  0
  -40.0353   57.2573   64.1551 C   0  0  0  0  0  0  0  0  0  0  0  0
  -40.4148   56.4683   62.9394 C   0  0  0  0  0  0  0  0  0  0  0  0
  -41.2160   55.2106   63.0923 C   0  0  0  0  0  0  0  0  0  0  0  0
  -40.0371   56.8804   61.7201 C   0  0  0  0  0  0  0  0  0  0  0  0
  -36.1098   59.2685   64.3090 C   0  0  0  0  0  0  0  0  0  0  0  0
  -35.2035   60.4548   64.0032 C   0  0  0  0  0  0  0  0  0  0  0  0
  -35.6533   61.6676   64.7888 C   0  0  0  0  0  0  0  0  0  0  0  0
  -36.5273   62.6928   64.1358 C   0  0  0  0  0  0  0  0  0  0  0  0
  -35.2831   61.8244   66.0684 C   0  0  0  0  0  0  0  0  0  0  0  0
  -36.4497   62.6064   68.0327 O   0  0  0  0  0  0  0  0  0  0  0  0
  -35.7264   63.0265   66.8705 C   0  0  0  0  0  0  0  0  0  0  0  0
  -36.7287   63.3854   68.5390 H   0  0  0  0  0  0  0  0  0  0  0  0
  6  7  1  0  0  0
 15 16  1  0  0  0
 15 17  1  0  0  0
  7  8  1  0  0  0
  7  9  2  0  0  0
  9  5  1  0  0  0
  5  4  1  0  0  0
  4  1  1  0  0  0
  1  2  1  0  0  0
  1  3  2  0  0  0
  3 10  1  0  0  0
 10 11  1  0  0  0
 11 12  1  0  0  0
 12 13  1  0  0  0
 12 14  2  0  0  0
 14 16  1  0  0  0
M  END
> <minimizedAffinity>
-6.45082

> <CNNscore>
0.6334521174

> <CNNaffinity>
5.5301766396

> <CNN_VS>
3.5031020641

> <CNNaffinity_variance>
0.0914233178

$$$$
/media/chris/experiments/cd1a-new-docking/inputs/ligands/6nux_ligand.pdb


 17 16  0  0  0  0  0  0  0  0999 V2000
  -35.8637   57.7094   62.7342 C   0  0  0  0  0  0  0  0  0  0  0  0
  -34.5443   57.3987   62.0864 C   0  0  0  0  0  0  0  0  0  0  0  0
  -35.8919   58.4907   63.8230 C   0  0  0  0  0  0  0  0  0  0  0  0
  -37.1538   57.1555   62.1674 C   0  0  0  0  0  0  0  0  0  0  0  0
  -37.5791   57.9372   60.9287 C   0  0  0  0  0  0  0  0  0  0  0  0
  -40.3838   57.4676   61.2785 C   0  0  0  0  0  0  0  0  0  0  0  0
  -39.8213   58.8424   61.4733 C   0  0  0  0  0  0  0  0  0  0  0  0
  -40.7342   59.9705   61.8494 C   0  0  0  0  0  0  0  0  0  0  0  0
  -38.5091   59.0664   61.3084 C   0  0  0  0  0  0  0  0  0  0  0  0
  -34.6080   59.0514   64.3901 C   0  0  0  0  0  0  0  0  0  0  0  0
  -34.4110   60.4887   63.9236 C   0  0  0  0  0  0  0  0  0  0  0  0
  -35.4494   61.3875   64.5592 C   0  0  0  0  0  0  0  0  0  0  0  0
  -36.4451   62.0978   63.6956 C   0  0  0  0  0  0  0  0  0  0  0  0
  -35.4903   61.5435   65.8907 C   0  0  0  0  0  0  0  0  0  0  0  0
  -36.2096   62.6213   67.9283 O   0  0  0  0  0  0  0  0  0  0  0  0
  -36.5232   62.4332   66.5439 C   0  0  0  0  0  0  0  0  0  0  0  0
  -36.8785   63.1932   68.3366 H   0  0  0  0  0  0  0  0  0  0  0  0
  6  7  1  0  0  0
 15 16  1  0  0  0
 15 17  1  0  0  0
  7  8  1  0  0  0
  7  9  2  0  0  0
  9  5  1  0  0  0
  5  4  1  0  0  0
  4  1  1  0  0  0
  1  2  1  0  0  0
  1  3  2  0  0  0
  3 10  1  0  0  0
 10 11  1  0  0  0
 11 12  1  0  0  0
 12 13  1  0  0  0
 12 14  2  0  0  0
 14 16  1  0  0  0
M  END
> <minimizedAffinity>
-6.42894

> <CNNscore>
0.5719074011

> <CNNaffinity>
5.2913322449

> <CNN_VS>
3.0261521339

> <CNNaffinity_variance>
0.0846547633

$$$$
/media/chris/experiments/cd1a-new-docking/inputs/ligands/6nux_ligand.pdb


 17 16  0  0  0  0  0  0  0  0999 V2000
  -37.7873   57.2606   62.6610 C   0  0  0  0  0  0  0  0  0  0  0  0
  -37.9367   57.6176   64.1127 C   0  0  0  0  0  0  0  0  0  0  0  0
  -38.8308   56.7351   62.0041 C   0  0  0  0  0  0  0  0  0  0  0  0
  -36.4778   57.4935   61.9374 C   0  0  0  0  0  0  0  0  0  0  0  0
  -35.2947   57.1755   62.8460 C   0  0  0  0  0  0  0  0  0  0  0  0
  -32.6641   56.4950   61.9372 C   0  0  0  0  0  0  0  0  0  0  0  0
  -32.9957   57.9136   62.2865 C   0  0  0  0  0  0  0  0  0  0  0  0
  -31.9431   58.9736   62.1605 C   0  0  0  0  0  0  0  0  0  0  0  0
  -34.2256   58.2355   62.7143 C   0  0  0  0  0  0  0  0  0  0  0  0
  -40.1423   56.5057   62.7193 C   0  0  0  0  0  0  0  0  0  0  0  0
  -41.2420   57.3476   62.0837 C   0  0  0  0  0  0  0  0  0  0  0  0
  -41.1587   58.7734   62.5840 C   0  0  0  0  0  0  0  0  0  0  0  0
  -40.6763   59.8547   61.6678 C   0  0  0  0  0  0  0  0  0  0  0  0
  -41.5240   59.0761   63.8385 C   0  0  0  0  0  0  0  0  0  0  0  0
  -41.2256   60.4965   65.7685 O   0  0  0  0  0  0  0  0  0  0  0  0
  -41.4523   60.4951   64.3547 C   0  0  0  0  0  0  0  0  0  0  0  0
  -41.1816   61.4114   66.0880 H   0  0  0  0  0  0  0  0  0  0  0  0
  6  7  1  0  0  0
 15 16  1  0  0  0
 15 17  1  0  0  0
  7  8  1  0  0  0
  7  9  2  0  0  0
  9  5  1  0  0  0
  5  4  1  0  0  0
  4  1  1  0  0  0
  1  2  1  0  0  0
  1  3  2  0  0  0
  3 10  1  0  0  0
 10 11  1  0  0  0
 11 12  1  0  0  0
 12 13  1  0  0  0
 12 14  2  0  0  0
 14 16  1  0  0  0
M  END
> <minimizedAffinity>
-6.55090

> <CNNscore>
0.5694556832

> <CNNaffinity>
5.5398020744

> <CNN_VS>
3.1546716690

> <CNNaffinity_variance>
0.0358679332

$$$$
