/media/chris/experiments/cd1a-new-docking/inputs/ligands/6nux_ligand.pdb


 17 16  0  0  0  0  0  0  0  0999 V2000
  -49.5743   58.7193   64.4996 C   0  0  0  0  0  0  0  0  0  0  0  0
  -49.5959   60.2034   64.2680 C   0  0  0  0  0  0  0  0  0  0  0  0
  -49.0865   57.9136   63.5458 C   0  0  0  0  0  0  0  0  0  0  0  0
  -50.0906   58.1304   65.7955 C   0  0  0  0  0  0  0  0  0  0  0  0
  -48.9910   57.3528   66.5112 C   0  0  0  0  0  0  0  0  0  0  0  0
  -46.2525   56.8136   65.8638 C   0  0  0  0  0  0  0  0  0  0  0  0
  -46.6116   58.0314   66.6590 C   0  0  0  0  0  0  0  0  0  0  0  0
  -45.5305   58.9639   67.1160 C   0  0  0  0  0  0  0  0  0  0  0  0
  -47.8923   58.2860   66.9657 C   0  0  0  0  0  0  0  0  0  0  0  0
  -48.5643   58.4958   62.2524 C   0  0  0  0  0  0  0  0  0  0  0  0
  -49.2622   57.8459   61.0639 C   0  0  0  0  0  0  0  0  0  0  0  0
  -48.2369   57.2683   60.1122 C   0  0  0  0  0  0  0  0  0  0  0  0
  -47.0689   58.1016   59.6845 C   0  0  0  0  0  0  0  0  0  0  0  0
  -48.3620   56.0125   59.6583 C   0  0  0  0  0  0  0  0  0  0  0  0
  -48.0015   54.8694   57.5620 O   0  0  0  0  0  0  0  0  0  0  0  0
  -47.3455   55.4169   58.7111 C   0  0  0  0  0  0  0  0  0  0  0  0
  -47.3401   54.4906   56.9621 H   0  0  0  0  0  0  0  0  0  0  0  0
  6  7  1  0  0  0
 15 16  1  0  0  0
 15 17  1  0  0  0
  7  8  1  0  0  0
  7  9  2  0  0  0
  9  5  1  0  0  0
  5  4  1  0  0  0
  4  1  1  0  0  0
  1  2  1  0  0  0
  1  3  2  0  0  0
  3 10  1  0  0  0
 10 11  1  0  0  0
 11 12  1  0  0  0
 12 13  1  0  0  0
 12 14  2  0  0  0
 14 16  1  0  0  0
M  END
> <minimizedAffinity>
-6.70204

> <CNNscore>
0.7762905359

> <CNNaffinity>
6.2553896904

> <CNN_VS>
4.8559999466

> <CNNaffinity_variance>
0.2644881606

$$$$
/media/chris/experiments/cd1a-new-docking/inputs/ligands/6nux_ligand.pdb


 17 16  0  0  0  0  0  0  0  0999 V2000
  -49.6791   58.5593   61.8485 C   0  0  0  0  0  0  0  0  0  0  0  0
  -49.5751   59.9422   61.2706 C   0  0  0  0  0  0  0  0  0  0  0  0
  -49.6035   58.3962   63.1768 C   0  0  0  0  0  0  0  0  0  0  0  0
  -49.8729   57.3570   60.9488 C   0  0  0  0  0  0  0  0  0  0  0  0
  -49.5293   57.7028   59.5037 C   0  0  0  0  0  0  0  0  0  0  0  0
  -46.9655   57.8679   58.2351 C   0  0  0  0  0  0  0  0  0  0  0  0
  -47.7373   56.5841   58.2072 C   0  0  0  0  0  0  0  0  0  0  0  0
  -47.1621   55.3882   57.5098 C   0  0  0  0  0  0  0  0  0  0  0  0
  -48.9387   56.5037   58.7982 C   0  0  0  0  0  0  0  0  0  0  0  0
  -49.4159   59.5930   64.0805 C   0  0  0  0  0  0  0  0  0  0  0  0
  -49.8104   59.2397   65.5094 C   0  0  0  0  0  0  0  0  0  0  0  0
  -48.7009   58.4547   66.1751 C   0  0  0  0  0  0  0  0  0  0  0  0
  -47.3772   59.1075   66.4264 C   0  0  0  0  0  0  0  0  0  0  0  0
  -48.8989   57.1824   66.5504 C   0  0  0  0  0  0  0  0  0  0  0  0
  -48.0069   54.9838   66.9996 O   0  0  0  0  0  0  0  0  0  0  0  0
  -47.8042   56.3840   67.2208 C   0  0  0  0  0  0  0  0  0  0  0  0
  -47.2994   54.4821   67.4338 H   0  0  0  0  0  0  0  0  0  0  0  0
  6  7  1  0  0  0
 15 16  1  0  0  0
 15 17  1  0  0  0
  7  8  1  0  0  0
  7  9  2  0  0  0
  9  5  1  0  0  0
  5  4  1  0  0  0
  4  1  1  0  0  0
  1  2  1  0  0  0
  1  3  2  0  0  0
  3 10  1  0  0  0
 10 11  1  0  0  0
 11 12  1  0  0  0
 12 13  1  0  0  0
 12 14  2  0  0  0
 14 16  1  0  0  0
M  END
> <minimizedAffinity>
-7.12095

> <CNNscore>
0.7611160278

> <CNNaffinity>
6.1102705002

> <CNN_VS>
4.6506247520

> <CNNaffinity_variance>
0.3489884436

$$$$
/media/chris/experiments/cd1a-new-docking/inputs/ligands/6nux_ligand.pdb


 17 16  0  0  0  0  0  0  0  0999 V2000
  -38.9169   57.9701   61.3794 C   0  0  0  0  0  0  0  0  0  0  0  0
  -39.8449   59.1044   61.0490 C   0  0  0  0  0  0  0  0  0  0  0  0
  -39.4279   56.8117   61.8197 C   0  0  0  0  0  0  0  0  0  0  0  0
  -37.4194   58.1219   61.2147 C   0  0  0  0  0  0  0  0  0  0  0  0
  -36.6756   57.1115   62.0818 C   0  0  0  0  0  0  0  0  0  0  0  0
  -33.8299   57.0011   61.7667 C   0  0  0  0  0  0  0  0  0  0  0  0
  -34.4314   57.7681   62.9044 C   0  0  0  0  0  0  0  0  0  0  0  0
  -33.5364   58.4744   63.8777 C   0  0  0  0  0  0  0  0  0  0  0  0
  -35.7631   57.8202   63.0563 C   0  0  0  0  0  0  0  0  0  0  0  0
  -40.9222   56.6520   61.9807 C   0  0  0  0  0  0  0  0  0  0  0  0
  -41.2279   55.6817   63.1152 C   0  0  0  0  0  0  0  0  0  0  0  0
  -41.9614   56.3989   64.2279 C   0  0  0  0  0  0  0  0  0  0  0  0
  -41.3534   57.6150   64.8546 C   0  0  0  0  0  0  0  0  0  0  0  0
  -43.1564   55.9585   64.6488 C   0  0  0  0  0  0  0  0  0  0  0  0
  -45.2686   56.2254   65.7882 O   0  0  0  0  0  0  0  0  0  0  0  0
  -43.9060   56.6644   65.7555 C   0  0  0  0  0  0  0  0  0  0  0  0
  -45.7392   56.6845   66.5014 H   0  0  0  0  0  0  0  0  0  0  0  0
  6  7  1  0  0  0
 15 16  1  0  0  0
 15 17  1  0  0  0
  7  8  1  0  0  0
  7  9  2  0  0  0
  9  5  1  0  0  0
  5  4  1  0  0  0
  4  1  1  0  0  0
  1  2  1  0  0  0
  1  3  2  0  0  0
  3 10  1  0  0  0
 10 11  1  0  0  0
 11 12  1  0  0  0
 12 13  1  0  0  0
 12 14  2  0  0  0
 14 16  1  0  0  0
M  END
> <minimizedAffinity>
-6.61433

> <CNNscore>
0.7339646220

> <CNNaffinity>
5.7983303070

> <CNN_VS>
4.2557692528

> <CNNaffinity_variance>
0.0256295763

$$$$
/media/chris/experiments/cd1a-new-docking/inputs/ligands/6nux_ligand.pdb


 17 16  0  0  0  0  0  0  0  0999 V2000
  -50.0042   58.3982   61.0523 C   0  0  0  0  0  0  0  0  0  0  0  0
  -50.0177   59.8927   60.8999 C   0  0  0  0  0  0  0  0  0  0  0  0
  -49.6762   57.8627   62.2365 C   0  0  0  0  0  0  0  0  0  0  0  0
  -50.3614   57.4981   59.8883 C   0  0  0  0  0  0  0  0  0  0  0  0
  -49.2310   56.5161   59.5984 C   0  0  0  0  0  0  0  0  0  0  0  0
  -46.5540   57.4338   60.0463 C   0  0  0  0  0  0  0  0  0  0  0  0
  -47.1285   57.4368   58.6626 C   0  0  0  0  0  0  0  0  0  0  0  0
  -46.2963   57.9250   57.5154 C   0  0  0  0  0  0  0  0  0  0  0  0
  -48.3821   57.0098   58.4495 C   0  0  0  0  0  0  0  0  0  0  0  0
  -49.3244   58.7560   63.4038 C   0  0  0  0  0  0  0  0  0  0  0  0
  -48.0340   58.2798   64.0599 C   0  0  0  0  0  0  0  0  0  0  0  0
  -48.3444   57.5674   65.3586 C   0  0  0  0  0  0  0  0  0  0  0  0
  -49.6133   57.8773   66.0903 C   0  0  0  0  0  0  0  0  0  0  0  0
  -47.4960   56.6536   65.8525 C   0  0  0  0  0  0  0  0  0  0  0  0
  -47.3223   56.6949   68.2607 O   0  0  0  0  0  0  0  0  0  0  0  0
  -47.7912   55.9286   67.1457 C   0  0  0  0  0  0  0  0  0  0  0  0
  -47.5170   56.2205   69.0839 H   0  0  0  0  0  0  0  0  0  0  0  0
  6  7  1  0  0  0
 15 16  1  0  0  0
 15 17  1  0  0  0
  7  8  1  0  0  0
  7  9  2  0  0  0
  9  5  1  0  0  0
  5  4  1  0  0  0
  4  1  1  0  0  0
  1  2  1  0  0  0
  1  3  2  0  0  0
  3 10  1  0  0  0
 10 11  1  0  0  0
 11 12  1  0  0  0
 12 13  1  0  0  0
 12 14  2  0  0  0
 14 16  1  0  0  0
M  END
> <minimizedAffinity>
-7.73887

> <CNNscore>
0.7119656801

> <CNNaffinity>
5.9727478027

> <CNN_VS>
4.2523913383

> <CNNaffinity_variance>
0.0849021524

$$$$
/media/chris/experiments/cd1a-new-docking/inputs/ligands/6nux_ligand.pdb


 17 16  0  0  0  0  0  0  0  0999 V2000
  -49.3330   58.3611   62.9360 C   0  0  0  0  0  0  0  0  0  0  0  0
  -48.2637   59.3951   62.7255 C   0  0  0  0  0  0  0  0  0  0  0  0
  -49.7936   58.1365   64.1746 C   0  0  0  0  0  0  0  0  0  0  0  0
  -49.8951   57.5797   61.7671 C   0  0  0  0  0  0  0  0  0  0  0  0
  -49.2411   58.0173   60.4606 C   0  0  0  0  0  0  0  0  0  0  0  0
  -46.5085   57.4086   59.8510 C   0  0  0  0  0  0  0  0  0  0  0  0
  -47.6078   56.5315   59.3344 C   0  0  0  0  0  0  0  0  0  0  0  0
  -47.2701   55.3362   58.4951 C   0  0  0  0  0  0  0  0  0  0  0  0
  -48.8883   56.8146   59.6160 C   0  0  0  0  0  0  0  0  0  0  0  0
  -49.2407   58.9173   65.3447 C   0  0  0  0  0  0  0  0  0  0  0  0
  -48.9282   57.9777   66.5030 C   0  0  0  0  0  0  0  0  0  0  0  0
  -47.6980   57.1550   66.1863 C   0  0  0  0  0  0  0  0  0  0  0  0
  -47.7146   55.6758   66.4170 C   0  0  0  0  0  0  0  0  0  0  0  0
  -46.5975   57.7403   65.6911 C   0  0  0  0  0  0  0  0  0  0  0  0
  -44.2300   57.8006   65.2195 O   0  0  0  0  0  0  0  0  0  0  0  0
  -45.3611   56.9344   65.3644 C   0  0  0  0  0  0  0  0  0  0  0  0
  -43.4435   57.2731   65.0103 H   0  0  0  0  0  0  0  0  0  0  0  0
  6  7  1  0  0  0
 15 16  1  0  0  0
 15 17  1  0  0  0
  7  8  1  0  0  0
  7  9  2  0  0  0
  9  5  1  0  0  0
  5  4  1  0  0  0
  4  1  1  0  0  0
  1  2  1  0  0  0
  1  3  2  0  0  0
  3 10  1  0  0  0
 10 11  1  0  0  0
 11 12  1  0  0  0
 12 13  1  0  0  0
 12 14  2  0  0  0
 14 16  1  0  0  0
M  END
> <minimizedAffinity>
-6.29824

> <CNNscore>
0.6844570637

> <CNNaffinity>
5.9531035423

> <CNN_VS>
4.0746436119

> <CNNaffinity_variance>
0.1744456440

$$$$
/media/chris/experiments/cd1a-new-docking/inputs/ligands/6nux_ligand.pdb


 17 16  0  0  0  0  0  0  0  0999 V2000
  -38.4237   57.5589   61.3877 C   0  0  0  0  0  0  0  0  0  0  0  0
  -39.4570   58.2188   60.5195 C   0  0  0  0  0  0  0  0  0  0  0  0
  -38.8078   56.6275   62.2719 C   0  0  0  0  0  0  0  0  0  0  0  0
  -36.9607   57.9308   61.2688 C   0  0  0  0  0  0  0  0  0  0  0  0
  -36.1320   57.2076   62.3253 C   0  0  0  0  0  0  0  0  0  0  0  0
  -34.5693   58.7625   64.1556 C   0  0  0  0  0  0  0  0  0  0  0  0
  -33.9276   58.1567   62.9449 C   0  0  0  0  0  0  0  0  0  0  0  0
  -32.4651   58.3711   62.6954 C   0  0  0  0  0  0  0  0  0  0  0  0
  -34.6565   57.4300   62.0848 C   0  0  0  0  0  0  0  0  0  0  0  0
  -40.2658   56.2478   62.3913 C   0  0  0  0  0  0  0  0  0  0  0  0
  -40.7330   56.4027   63.8335 C   0  0  0  0  0  0  0  0  0  0  0  0
  -40.8745   57.8695   64.1784 C   0  0  0  0  0  0  0  0  0  0  0  0
  -41.8223   58.7272   63.3991 C   0  0  0  0  0  0  0  0  0  0  0  0
  -40.1646   58.4031   65.1835 C   0  0  0  0  0  0  0  0  0  0  0  0
  -39.2480   60.6229   64.9312 O   0  0  0  0  0  0  0  0  0  0  0  0
  -40.2960   59.8649   65.5456 C   0  0  0  0  0  0  0  0  0  0  0  0
  -39.3424   61.5581   65.1703 H   0  0  0  0  0  0  0  0  0  0  0  0
  6  7  1  0  0  0
 15 16  1  0  0  0
 15 17  1  0  0  0
  7  8  1  0  0  0
  7  9  2  0  0  0
  9  5  1  0  0  0
  5  4  1  0  0  0
  4  1  1  0  0  0
  1  2  1  0  0  0
  1  3  2  0  0  0
  3 10  1  0  0  0
 10 11  1  0  0  0
 11 12  1  0  0  0
 12 13  1  0  0  0
 12 14  2  0  0  0
 14 16  1  0  0  0
M  END
> <minimizedAffinity>
-6.78299

> <CNNscore>
0.6749330163

> <CNNaffinity>
5.6155128479

> <CNN_VS>
3.7900950909

> <CNNaffinity_variance>
0.0298778024

$$$$
/media/chris/experiments/cd1a-new-docking/inputs/ligands/6nux_ligand.pdb


 17 16  0  0  0  0  0  0  0  0999 V2000
  -41.9725   56.1471   63.0822 C   0  0  0  0  0  0  0  0  0  0  0  0
  -41.7439   54.8870   63.8676 C   0  0  0  0  0  0  0  0  0  0  0  0
  -42.5780   57.1871   63.6726 C   0  0  0  0  0  0  0  0  0  0  0  0
  -41.5223   56.2531   61.6404 C   0  0  0  0  0  0  0  0  0  0  0  0
  -40.4928   57.3663   61.4765 C   0  0  0  0  0  0  0  0  0  0  0  0
  -38.0413   58.5340   60.5623 C   0  0  0  0  0  0  0  0  0  0  0  0
  -38.0246   57.5084   61.6543 C   0  0  0  0  0  0  0  0  0  0  0  0
  -36.7187   57.0950   62.2632 C   0  0  0  0  0  0  0  0  0  0  0  0
  -39.1701   56.9581   62.0833 C   0  0  0  0  0  0  0  0  0  0  0  0
  -43.0244   57.0896   65.1132 C   0  0  0  0  0  0  0  0  0  0  0  0
  -43.6901   58.3901   65.5464 C   0  0  0  0  0  0  0  0  0  0  0  0
  -45.0145   58.0966   66.2177 C   0  0  0  0  0  0  0  0  0  0  0  0
  -46.0592   59.1660   66.2975 C   0  0  0  0  0  0  0  0  0  0  0  0
  -45.2620   56.8828   66.7317 C   0  0  0  0  0  0  0  0  0  0  0  0
  -47.3206   55.6255   66.6198 O   0  0  0  0  0  0  0  0  0  0  0  0
  -46.5804   56.5697   67.4016 C   0  0  0  0  0  0  0  0  0  0  0  0
  -48.1636   55.4324   67.0589 H   0  0  0  0  0  0  0  0  0  0  0  0
  6  7  1  0  0  0
 15 16  1  0  0  0
 15 17  1  0  0  0
  7  8  1  0  0  0
  7  9  2  0  0  0
  9  5  1  0  0  0
  5  4  1  0  0  0
  4  1  1  0  0  0
  1  2  1  0  0  0
  1  3  2  0  0  0
  3 10  1  0  0  0
 10 11  1  0  0  0
 11 12  1  0  0  0
 12 13  1  0  0  0
 12 14  2  0  0  0
 14 16  1  0  0  0
M  END
> <minimizedAffinity>
-6.72991

> <CNNscore>
0.6405857801

> <CNNaffinity>
5.6632976532

> <CNN_VS>
3.6278278828

> <CNNaffinity_variance>
0.1890541464

$$$$
/media/chris/experiments/cd1a-new-docking/inputs/ligands/6nux_ligand.pdb


 17 16  0  0  0  0  0  0  0  0999 V2000
  -35.9310   57.8629   62.5719 C   0  0  0  0  0  0  0  0  0  0  0  0
  -34.5684   57.5821   62.0051 C   0  0  0  0  0  0  0  0  0  0  0  0
  -36.0510   58.7154   63.5993 C   0  0  0  0  0  0  0  0  0  0  0  0
  -37.1623   57.1994   61.9921 C   0  0  0  0  0  0  0  0  0  0  0  0
  -38.3200   57.2488   62.9839 C   0  0  0  0  0  0  0  0  0  0  0  0
  -40.6248   58.5721   61.9132 C   0  0  0  0  0  0  0  0  0  0  0  0
  -40.5722   57.0757   61.9632 C   0  0  0  0  0  0  0  0  0  0  0  0
  -41.7326   56.2756   61.4529 C   0  0  0  0  0  0  0  0  0  0  0  0
  -39.4957   56.4529   62.4657 C   0  0  0  0  0  0  0  0  0  0  0  0
  -34.8263   59.3854   64.1786 C   0  0  0  0  0  0  0  0  0  0  0  0
  -35.1921   60.7537   64.7408 C   0  0  0  0  0  0  0  0  0  0  0  0
  -35.0758   61.8068   63.6600 C   0  0  0  0  0  0  0  0  0  0  0  0
  -36.3145   62.4213   63.0860 C   0  0  0  0  0  0  0  0  0  0  0  0
  -33.8711   62.2002   63.2209 C   0  0  0  0  0  0  0  0  0  0  0  0
  -33.5004   64.5368   62.7369 O   0  0  0  0  0  0  0  0  0  0  0  0
  -33.7350   63.2539   62.1455 C   0  0  0  0  0  0  0  0  0  0  0  0
  -33.4149   65.2041   62.0383 H   0  0  0  0  0  0  0  0  0  0  0  0
  6  7  1  0  0  0
 15 16  1  0  0  0
 15 17  1  0  0  0
  7  8  1  0  0  0
  7  9  2  0  0  0
  9  5  1  0  0  0
  5  4  1  0  0  0
  4  1  1  0  0  0
  1  2  1  0  0  0
  1  3  2  0  0  0
  3 10  1  0  0  0
 10 11  1  0  0  0
 11 12  1  0  0  0
 12 13  1  0  0  0
 12 14  2  0  0  0
 14 16  1  0  0  0
M  END
> <minimizedAffinity>
-6.56737

> <CNNscore>
0.5947308540

> <CNNaffinity>
5.3941345215

> <CNN_VS>
3.2080581188

> <CNNaffinity_variance>
0.0528032482

$$$$
/media/chris/experiments/cd1a-new-docking/inputs/ligands/6nux_ligand.pdb


 17 16  0  0  0  0  0  0  0  0999 V2000
  -38.5501   57.6804   61.3543 C   0  0  0  0  0  0  0  0  0  0  0  0
  -37.6725   58.6311   60.5908 C   0  0  0  0  0  0  0  0  0  0  0  0
  -38.0133   56.9282   62.3253 C   0  0  0  0  0  0  0  0  0  0  0  0
  -40.0275   57.5699   61.0417 C   0  0  0  0  0  0  0  0  0  0  0  0
  -40.6850   56.5028   61.9106 C   0  0  0  0  0  0  0  0  0  0  0  0
  -41.9299   55.0750   64.0603 C   0  0  0  0  0  0  0  0  0  0  0  0
  -42.4846   56.3924   63.6115 C   0  0  0  0  0  0  0  0  0  0  0  0
  -43.6954   56.9573   64.2913 C   0  0  0  0  0  0  0  0  0  0  0  0
  -41.9057   57.0625   62.6041 C   0  0  0  0  0  0  0  0  0  0  0  0
  -36.5404   57.0382   62.6459 C   0  0  0  0  0  0  0  0  0  0  0  0
  -36.3434   57.2703   64.1391 C   0  0  0  0  0  0  0  0  0  0  0  0
  -36.3072   58.7544   64.4332 C   0  0  0  0  0  0  0  0  0  0  0  0
  -35.0437   59.5253   64.2077 C   0  0  0  0  0  0  0  0  0  0  0  0
  -37.4016   59.3851   64.8842 C   0  0  0  0  0  0  0  0  0  0  0  0
  -37.8639   61.1131   66.5063 O   0  0  0  0  0  0  0  0  0  0  0  0
  -37.3859   60.8676   65.1790 C   0  0  0  0  0  0  0  0  0  0  0  0
  -37.8494   62.0665   66.6841 H   0  0  0  0  0  0  0  0  0  0  0  0
  6  7  1  0  0  0
 15 16  1  0  0  0
 15 17  1  0  0  0
  7  8  1  0  0  0
  7  9  2  0  0  0
  9  5  1  0  0  0
  5  4  1  0  0  0
  4  1  1  0  0  0
  1  2  1  0  0  0
  1  3  2  0  0  0
  3 10  1  0  0  0
 10 11  1  0  0  0
 11 12  1  0  0  0
 12 13  1  0  0  0
 12 14  2  0  0  0
 14 16  1  0  0  0
M  END
> <minimizedAffinity>
-6.76378

> <CNNscore>
0.5934204459

> <CNNaffinity>
5.5792751312

> <CNN_VS>
3.3108558655

> <CNNaffinity_variance>
0.0143904891

$$$$
