/media/chris/experiments/cd1a-new-docking/inputs/ligands/6nux_ligand.pdb


 17 16  0  0  0  0  0  0  0  0999 V2000
  -42.4794   56.9792   64.3109 C   0  0  0  0  0  0  0  0  0  0  0  0
  -41.8254   58.3097   64.5536 C   0  0  0  0  0  0  0  0  0  0  0  0
  -42.1784   56.2935   63.1993 C   0  0  0  0  0  0  0  0  0  0  0  0
  -43.4652   56.4079   65.3082 C   0  0  0  0  0  0  0  0  0  0  0  0
  -44.6893   57.3089   65.4342 C   0  0  0  0  0  0  0  0  0  0  0  0
  -47.4916   57.6331   64.9326 C   0  0  0  0  0  0  0  0  0  0  0  0
  -47.0260   56.8360   66.1125 C   0  0  0  0  0  0  0  0  0  0  0  0
  -48.0340   56.2118   67.0300 C   0  0  0  0  0  0  0  0  0  0  0  0
  -45.7149   56.6838   66.3517 C   0  0  0  0  0  0  0  0  0  0  0  0
  -41.1908   56.8558   62.2029 C   0  0  0  0  0  0  0  0  0  0  0  0
  -39.8102   56.2535   62.4341 C   0  0  0  0  0  0  0  0  0  0  0  0
  -38.7484   57.1375   61.8166 C   0  0  0  0  0  0  0  0  0  0  0  0
  -37.3348   57.0498   62.3023 C   0  0  0  0  0  0  0  0  0  0  0  0
  -39.0629   57.9906   60.8305 C   0  0  0  0  0  0  0  0  0  0  0  0
  -37.9822   60.1499   60.8550 O   0  0  0  0  0  0  0  0  0  0  0  0
  -38.0150   58.8780   60.1982 C   0  0  0  0  0  0  0  0  0  0  0  0
  -37.3070   60.7101   60.4413 H   0  0  0  0  0  0  0  0  0  0  0  0
  6  7  1  0  0  0
 15 16  1  0  0  0
 15 17  1  0  0  0
  7  8  1  0  0  0
  7  9  2  0  0  0
  9  5  1  0  0  0
  5  4  1  0  0  0
  4  1  1  0  0  0
  1  2  1  0  0  0
  1  3  2  0  0  0
  3 10  1  0  0  0
 10 11  1  0  0  0
 11 12  1  0  0  0
 12 13  1  0  0  0
 12 14  2  0  0  0
 14 16  1  0  0  0
M  END
> <minimizedAffinity>
-6.64533

> <CNNscore>
0.7868293524

> <CNNaffinity>
5.9358072281

> <CNN_VS>
4.6704673767

> <CNNaffinity_variance>
0.2470021993

$$$$
/media/chris/experiments/cd1a-new-docking/inputs/ligands/6nux_ligand.pdb


 17 16  0  0  0  0  0  0  0  0999 V2000
  -38.6135   57.8039   61.2820 C   0  0  0  0  0  0  0  0  0  0  0  0
  -37.8193   58.7525   60.4298 C   0  0  0  0  0  0  0  0  0  0  0  0
  -37.9751   57.0267   62.1680 C   0  0  0  0  0  0  0  0  0  0  0  0
  -40.1200   57.7233   61.1529 C   0  0  0  0  0  0  0  0  0  0  0  0
  -40.6483   56.4401   61.7857 C   0  0  0  0  0  0  0  0  0  0  0  0
  -41.6023   54.3844   63.5389 C   0  0  0  0  0  0  0  0  0  0  0  0
  -42.0819   55.7943   63.7019 C   0  0  0  0  0  0  0  0  0  0  0  0
  -43.0650   56.1224   64.7850 C   0  0  0  0  0  0  0  0  0  0  0  0
  -41.6390   56.7589   62.8817 C   0  0  0  0  0  0  0  0  0  0  0  0
  -36.4721   57.1068   62.3057 C   0  0  0  0  0  0  0  0  0  0  0  0
  -36.0975   57.6050   63.6963 C   0  0  0  0  0  0  0  0  0  0  0  0
  -35.6887   59.0608   63.6332 C   0  0  0  0  0  0  0  0  0  0  0  0
  -34.2503   59.4196   63.4240 C   0  0  0  0  0  0  0  0  0  0  0  0
  -36.6073   60.0308   63.7528 C   0  0  0  0  0  0  0  0  0  0  0  0
  -36.5370   62.0299   62.4001 O   0  0  0  0  0  0  0  0  0  0  0  0
  -36.2187   61.4902   63.6876 C   0  0  0  0  0  0  0  0  0  0  0  0
  -36.2835   62.9657   62.3701 H   0  0  0  0  0  0  0  0  0  0  0  0
  6  7  1  0  0  0
 15 16  1  0  0  0
 15 17  1  0  0  0
  7  8  1  0  0  0
  7  9  2  0  0  0
  9  5  1  0  0  0
  5  4  1  0  0  0
  4  1  1  0  0  0
  1  2  1  0  0  0
  1  3  2  0  0  0
  3 10  1  0  0  0
 10 11  1  0  0  0
 11 12  1  0  0  0
 12 13  1  0  0  0
 12 14  2  0  0  0
 14 16  1  0  0  0
M  END
> <minimizedAffinity>
-6.80370

> <CNNscore>
0.7136692405

> <CNNaffinity>
5.6617355347

> <CNN_VS>
4.0406064987

> <CNNaffinity_variance>
0.0204471275

$$$$
/media/chris/experiments/cd1a-new-docking/inputs/ligands/6nux_ligand.pdb


 17 16  0  0  0  0  0  0  0  0999 V2000
  -39.4191   58.3932   61.2554 C   0  0  0  0  0  0  0  0  0  0  0  0
  -40.3487   59.5469   61.5040 C   0  0  0  0  0  0  0  0  0  0  0  0
  -39.8504   57.1437   61.4774 C   0  0  0  0  0  0  0  0  0  0  0  0
  -38.0099   58.6288   60.7539 C   0  0  0  0  0  0  0  0  0  0  0  0
  -37.0416   57.6268   61.3740 C   0  0  0  0  0  0  0  0  0  0  0  0
  -34.3343   57.2392   62.2284 C   0  0  0  0  0  0  0  0  0  0  0  0
  -35.3172   57.9213   63.1301 C   0  0  0  0  0  0  0  0  0  0  0  0
  -34.8771   58.3969   64.4820 C   0  0  0  0  0  0  0  0  0  0  0  0
  -36.5860   58.1026   62.7344 C   0  0  0  0  0  0  0  0  0  0  0  0
  -41.2578   56.9017   61.9724 C   0  0  0  0  0  0  0  0  0  0  0  0
  -41.2273   56.1364   63.2897 C   0  0  0  0  0  0  0  0  0  0  0  0
  -41.7376   57.0143   64.4119 C   0  0  0  0  0  0  0  0  0  0  0  0
  -43.0353   56.6839   65.0815 C   0  0  0  0  0  0  0  0  0  0  0  0
  -41.0303   58.0794   64.8173 C   0  0  0  0  0  0  0  0  0  0  0  0
  -40.8399   60.2240   65.9108 O   0  0  0  0  0  0  0  0  0  0  0  0
  -41.5215   58.9651   65.9396 C   0  0  0  0  0  0  0  0  0  0  0  0
  -41.1629   60.7832   66.6345 H   0  0  0  0  0  0  0  0  0  0  0  0
  6  7  1  0  0  0
 15 16  1  0  0  0
 15 17  1  0  0  0
  7  8  1  0  0  0
  7  9  2  0  0  0
  9  5  1  0  0  0
  5  4  1  0  0  0
  4  1  1  0  0  0
  1  2  1  0  0  0
  1  3  2  0  0  0
  3 10  1  0  0  0
 10 11  1  0  0  0
 11 12  1  0  0  0
 12 13  1  0  0  0
 12 14  2  0  0  0
 14 16  1  0  0  0
M  END
> <minimizedAffinity>
-6.25071

> <CNNscore>
0.7099438310

> <CNNaffinity>
5.6886873245

> <CNN_VS>
4.0386486053

> <CNNaffinity_variance>
0.0179887526

$$$$
/media/chris/experiments/cd1a-new-docking/inputs/ligands/6nux_ligand.pdb


 17 16  0  0  0  0  0  0  0  0999 V2000
  -38.4697   57.5084   61.4238 C   0  0  0  0  0  0  0  0  0  0  0  0
  -39.5332   58.1434   60.5738 C   0  0  0  0  0  0  0  0  0  0  0  0
  -38.8181   56.5785   62.3242 C   0  0  0  0  0  0  0  0  0  0  0  0
  -37.0163   57.9036   61.2686 C   0  0  0  0  0  0  0  0  0  0  0  0
  -36.1534   57.2109   62.3183 C   0  0  0  0  0  0  0  0  0  0  0  0
  -34.5079   58.3715   64.3567 C   0  0  0  0  0  0  0  0  0  0  0  0
  -33.9210   58.0265   63.0222 C   0  0  0  0  0  0  0  0  0  0  0  0
  -32.4697   58.2943   62.7588 C   0  0  0  0  0  0  0  0  0  0  0  0
  -34.6888   57.4850   62.0648 C   0  0  0  0  0  0  0  0  0  0  0  0
  -40.2664   56.1755   62.4797 C   0  0  0  0  0  0  0  0  0  0  0  0
  -40.7867   56.6021   63.8470 C   0  0  0  0  0  0  0  0  0  0  0  0
  -42.2672   56.9056   63.7673 C   0  0  0  0  0  0  0  0  0  0  0  0
  -42.8604   57.3743   62.4750 C   0  0  0  0  0  0  0  0  0  0  0  0
  -43.0527   56.7473   64.8429 C   0  0  0  0  0  0  0  0  0  0  0  0
  -45.2393   56.2285   65.7264 O   0  0  0  0  0  0  0  0  0  0  0  0
  -44.5343   57.0407   64.7812 C   0  0  0  0  0  0  0  0  0  0  0  0
  -46.1879   56.4252   65.6778 H   0  0  0  0  0  0  0  0  0  0  0  0
  6  7  1  0  0  0
 15 16  1  0  0  0
 15 17  1  0  0  0
  7  8  1  0  0  0
  7  9  2  0  0  0
  9  5  1  0  0  0
  5  4  1  0  0  0
  4  1  1  0  0  0
  1  2  1  0  0  0
  1  3  2  0  0  0
  3 10  1  0  0  0
 10 11  1  0  0  0
 11 12  1  0  0  0
 12 13  1  0  0  0
 12 14  2  0  0  0
 14 16  1  0  0  0
M  END
> <minimizedAffinity>
-7.05743

> <CNNscore>
0.6788595319

> <CNNaffinity>
5.7722311020

> <CNN_VS>
3.9185340405

> <CNNaffinity_variance>
0.0274095479

$$$$
/media/chris/experiments/cd1a-new-docking/inputs/ligands/6nux_ligand.pdb


 17 16  0  0  0  0  0  0  0  0999 V2000
  -38.4496   57.5592   61.3792 C   0  0  0  0  0  0  0  0  0  0  0  0
  -39.4876   58.2553   60.5455 C   0  0  0  0  0  0  0  0  0  0  0  0
  -38.8326   56.6129   62.2478 C   0  0  0  0  0  0  0  0  0  0  0  0
  -36.9834   57.9118   61.2430 C   0  0  0  0  0  0  0  0  0  0  0  0
  -36.1588   57.2186   62.3227 C   0  0  0  0  0  0  0  0  0  0  0  0
  -34.5520   58.4708   64.3375 C   0  0  0  0  0  0  0  0  0  0  0  0
  -33.9338   58.0402   63.0426 C   0  0  0  0  0  0  0  0  0  0  0  0
  -32.4715   58.2706   62.8063 C   0  0  0  0  0  0  0  0  0  0  0  0
  -34.6833   57.4555   62.0962 C   0  0  0  0  0  0  0  0  0  0  0  0
  -40.2940   56.2524   62.3842 C   0  0  0  0  0  0  0  0  0  0  0  0
  -40.7376   56.3956   63.8350 C   0  0  0  0  0  0  0  0  0  0  0  0
  -40.8949   57.8590   64.1875 C   0  0  0  0  0  0  0  0  0  0  0  0
  -41.8660   58.7060   63.4252 C   0  0  0  0  0  0  0  0  0  0  0  0
  -40.1784   58.3990   65.1845 C   0  0  0  0  0  0  0  0  0  0  0  0
  -39.1143   60.3429   66.1439 O   0  0  0  0  0  0  0  0  0  0  0  0
  -40.3254   59.8575   65.5542 C   0  0  0  0  0  0  0  0  0  0  0  0
  -39.2204   61.2785   66.3767 H   0  0  0  0  0  0  0  0  0  0  0  0
  6  7  1  0  0  0
 15 16  1  0  0  0
 15 17  1  0  0  0
  7  8  1  0  0  0
  7  9  2  0  0  0
  9  5  1  0  0  0
  5  4  1  0  0  0
  4  1  1  0  0  0
  1  2  1  0  0  0
  1  3  2  0  0  0
  3 10  1  0  0  0
 10 11  1  0  0  0
 11 12  1  0  0  0
 12 13  1  0  0  0
 12 14  2  0  0  0
 14 16  1  0  0  0
M  END
> <minimizedAffinity>
-6.88407

> <CNNscore>
0.6484962702

> <CNNaffinity>
5.6116018295

> <CNN_VS>
3.6391029358

> <CNNaffinity_variance>
0.0220688768

$$$$
/media/chris/experiments/cd1a-new-docking/inputs/ligands/6nux_ligand.pdb


 17 16  0  0  0  0  0  0  0  0999 V2000
  -49.8961   58.5486   61.3114 C   0  0  0  0  0  0  0  0  0  0  0  0
  -49.7662   59.9738   60.8542 C   0  0  0  0  0  0  0  0  0  0  0  0
  -49.6433   58.2451   62.5923 C   0  0  0  0  0  0  0  0  0  0  0  0
  -50.3131   57.4605   60.3446 C   0  0  0  0  0  0  0  0  0  0  0  0
  -49.1450   56.5261   60.0469 C   0  0  0  0  0  0  0  0  0  0  0  0
  -46.5128   57.5916   60.4286 C   0  0  0  0  0  0  0  0  0  0  0  0
  -47.1095   57.5351   59.0556 C   0  0  0  0  0  0  0  0  0  0  0  0
  -46.3231   58.0414   57.8840 C   0  0  0  0  0  0  0  0  0  0  0  0
  -48.3423   57.0388   58.8733 C   0  0  0  0  0  0  0  0  0  0  0  0
  -49.2324   59.3278   63.5635 C   0  0  0  0  0  0  0  0  0  0  0  0
  -48.0014   58.8905   64.3481 C   0  0  0  0  0  0  0  0  0  0  0  0
  -48.4004   57.9268   65.4447 C   0  0  0  0  0  0  0  0  0  0  0  0
  -49.7515   58.0423   66.0792 C   0  0  0  0  0  0  0  0  0  0  0  0
  -47.5562   56.9641   65.8441 C   0  0  0  0  0  0  0  0  0  0  0  0
  -47.7627   54.6434   66.4791 O   0  0  0  0  0  0  0  0  0  0  0  0
  -47.9389   55.9894   66.9345 C   0  0  0  0  0  0  0  0  0  0  0  0
  -48.0109   54.0277   67.1863 H   0  0  0  0  0  0  0  0  0  0  0  0
  6  7  1  0  0  0
 15 16  1  0  0  0
 15 17  1  0  0  0
  7  8  1  0  0  0
  7  9  2  0  0  0
  9  5  1  0  0  0
  5  4  1  0  0  0
  4  1  1  0  0  0
  1  2  1  0  0  0
  1  3  2  0  0  0
  3 10  1  0  0  0
 10 11  1  0  0  0
 11 12  1  0  0  0
 12 13  1  0  0  0
 12 14  2  0  0  0
 14 16  1  0  0  0
M  END
> <minimizedAffinity>
-7.43483

> <CNNscore>
0.5786671042

> <CNNaffinity>
5.9090666771

> <CNN_VS>
3.4193825722

> <CNNaffinity_variance>
0.1354710758

$$$$
/media/chris/experiments/cd1a-new-docking/inputs/ligands/6nux_ligand.pdb


 17 16  0  0  0  0  0  0  0  0999 V2000
  -49.1721   57.9157   65.2933 C   0  0  0  0  0  0  0  0  0  0  0  0
  -50.1065   57.6105   66.4294 C   0  0  0  0  0  0  0  0  0  0  0  0
  -47.9765   57.3115   65.2471 C   0  0  0  0  0  0  0  0  0  0  0  0
  -49.5697   58.8897   64.2043 C   0  0  0  0  0  0  0  0  0  0  0  0
  -48.6905   58.7092   62.9712 C   0  0  0  0  0  0  0  0  0  0  0  0
  -49.8851   60.0821   60.7581 C   0  0  0  0  0  0  0  0  0  0  0  0
  -49.9888   58.5912   60.8630 C   0  0  0  0  0  0  0  0  0  0  0  0
  -50.7229   57.8228   59.8056 C   0  0  0  0  0  0  0  0  0  0  0  0
  -49.4325   57.9453   61.8987 C   0  0  0  0  0  0  0  0  0  0  0  0
  -47.5762   56.3340   66.3280 C   0  0  0  0  0  0  0  0  0  0  0  0
  -46.6306   57.0033   67.3179 C   0  0  0  0  0  0  0  0  0  0  0  0
  -45.4201   57.5488   66.5917 C   0  0  0  0  0  0  0  0  0  0  0  0
  -44.5469   56.6222   65.8040 C   0  0  0  0  0  0  0  0  0  0  0  0
  -45.1308   58.8576   66.6402 C   0  0  0  0  0  0  0  0  0  0  0  0
  -44.3247   59.9782   64.6588 O   0  0  0  0  0  0  0  0  0  0  0  0
  -43.9288   59.4216   65.9173 C   0  0  0  0  0  0  0  0  0  0  0  0
  -43.5462   60.3366   64.2046 H   0  0  0  0  0  0  0  0  0  0  0  0
  6  7  1  0  0  0
 15 16  1  0  0  0
 15 17  1  0  0  0
  7  8  1  0  0  0
  7  9  2  0  0  0
  9  5  1  0  0  0
  5  4  1  0  0  0
  4  1  1  0  0  0
  1  2  1  0  0  0
  1  3  2  0  0  0
  3 10  1  0  0  0
 10 11  1  0  0  0
 11 12  1  0  0  0
 12 13  1  0  0  0
 12 14  2  0  0  0
 14 16  1  0  0  0
M  END
> <minimizedAffinity>
-6.54594

> <CNNscore>
0.5587498546

> <CNNaffinity>
5.6885676384

> <CNN_VS>
3.1784863472

> <CNNaffinity_variance>
0.0590234511

$$$$
/media/chris/experiments/cd1a-new-docking/inputs/ligands/6nux_ligand.pdb


 17 16  0  0  0  0  0  0  0  0999 V2000
  -37.2817   57.8456   64.0327 C   0  0  0  0  0  0  0  0  0  0  0  0
  -38.5586   57.7701   64.8206 C   0  0  0  0  0  0  0  0  0  0  0  0
  -37.2501   57.3538   62.7862 C   0  0  0  0  0  0  0  0  0  0  0  0
  -36.0399   58.4738   64.6294 C   0  0  0  0  0  0  0  0  0  0  0  0
  -34.8053   57.6366   64.3118 C   0  0  0  0  0  0  0  0  0  0  0  0
  -33.5030   56.9683   61.8487 C   0  0  0  0  0  0  0  0  0  0  0  0
  -33.0948   58.1943   62.6068 C   0  0  0  0  0  0  0  0  0  0  0  0
  -32.0000   59.0671   62.0710 C   0  0  0  0  0  0  0  0  0  0  0  0
  -33.7008   58.5092   63.7613 C   0  0  0  0  0  0  0  0  0  0  0  0
  -38.4879   56.7308   62.1829 C   0  0  0  0  0  0  0  0  0  0  0  0
  -39.0411   57.6238   61.0791 C   0  0  0  0  0  0  0  0  0  0  0  0
  -40.2320   58.4047   61.5913 C   0  0  0  0  0  0  0  0  0  0  0  0
  -40.2982   59.8847   61.3746 C   0  0  0  0  0  0  0  0  0  0  0  0
  -41.2327   57.7786   62.2281 C   0  0  0  0  0  0  0  0  0  0  0  0
  -42.3618   58.6722   64.1666 O   0  0  0  0  0  0  0  0  0  0  0  0
  -42.4325   58.5410   62.7425 C   0  0  0  0  0  0  0  0  0  0  0  0
  -43.1358   59.1625   64.4850 H   0  0  0  0  0  0  0  0  0  0  0  0
  6  7  1  0  0  0
 15 16  1  0  0  0
 15 17  1  0  0  0
  7  8  1  0  0  0
  7  9  2  0  0  0
  9  5  1  0  0  0
  5  4  1  0  0  0
  4  1  1  0  0  0
  1  2  1  0  0  0
  1  3  2  0  0  0
  3 10  1  0  0  0
 10 11  1  0  0  0
 11 12  1  0  0  0
 12 13  1  0  0  0
 12 14  2  0  0  0
 14 16  1  0  0  0
M  END
> <minimizedAffinity>
-6.46229

> <CNNscore>
0.5343255401

> <CNNaffinity>
5.5851330757

> <CNN_VS>
2.9842791557

> <CNNaffinity_variance>
0.0700818896

$$$$
/media/chris/experiments/cd1a-new-docking/inputs/ligands/6nux_ligand.pdb


 17 16  0  0  0  0  0  0  0  0999 V2000
  -38.2188   57.6356   61.4258 C   0  0  0  0  0  0  0  0  0  0  0  0
  -39.2916   58.2788   60.5937 C   0  0  0  0  0  0  0  0  0  0  0  0
  -38.5687   56.8279   62.4366 C   0  0  0  0  0  0  0  0  0  0  0  0
  -36.7551   57.8864   61.1301 C   0  0  0  0  0  0  0  0  0  0  0  0
  -35.8712   57.2353   62.1888 C   0  0  0  0  0  0  0  0  0  0  0  0
  -34.4634   59.0388   63.9137 C   0  0  0  0  0  0  0  0  0  0  0  0
  -33.7607   58.4075   62.7509 C   0  0  0  0  0  0  0  0  0  0  0  0
  -32.3186   58.7267   62.4938 C   0  0  0  0  0  0  0  0  0  0  0  0
  -34.4170   57.5643   61.9401 C   0  0  0  0  0  0  0  0  0  0  0  0
  -40.0279   56.5690   62.7331 C   0  0  0  0  0  0  0  0  0  0  0  0
  -40.3593   56.9991   64.1570 C   0  0  0  0  0  0  0  0  0  0  0  0
  -39.3082   57.9614   64.6663 C   0  0  0  0  0  0  0  0  0  0  0  0
  -38.0532   57.4300   65.2862 C   0  0  0  0  0  0  0  0  0  0  0  0
  -39.4886   59.2859   64.5565 C   0  0  0  0  0  0  0  0  0  0  0  0
  -38.7658   60.6883   66.3846 O   0  0  0  0  0  0  0  0  0  0  0  0
  -38.4478   60.2624   65.0551 C   0  0  0  0  0  0  0  0  0  0  0  0
  -38.0920   61.3138   66.6937 H   0  0  0  0  0  0  0  0  0  0  0  0
  6  7  1  0  0  0
 15 16  1  0  0  0
 15 17  1  0  0  0
  7  8  1  0  0  0
  7  9  2  0  0  0
  9  5  1  0  0  0
  5  4  1  0  0  0
  4  1  1  0  0  0
  1  2  1  0  0  0
  1  3  2  0  0  0
  3 10  1  0  0  0
 10 11  1  0  0  0
 11 12  1  0  0  0
 12 13  1  0  0  0
 12 14  2  0  0  0
 14 16  1  0  0  0
M  END
> <minimizedAffinity>
-6.99674

> <CNNscore>
0.5282269716

> <CNNaffinity>
5.4470515251

> <CNN_VS>
2.8772795200

> <CNNaffinity_variance>
0.0763412416

$$$$
