/media/chris/experiments/cd1a-new-docking/inputs/ligands/6nux_ligand.pdb


 17 16  0  0  0  0  0  0  0  0999 V2000
  -38.4849   57.5024   61.4237 C   0  0  0  0  0  0  0  0  0  0  0  0
  -39.5639   58.1291   60.5869 C   0  0  0  0  0  0  0  0  0  0  0  0
  -38.8166   56.5802   62.3382 C   0  0  0  0  0  0  0  0  0  0  0  0
  -37.0349   57.8974   61.2395 C   0  0  0  0  0  0  0  0  0  0  0  0
  -36.1624   57.2687   62.3211 C   0  0  0  0  0  0  0  0  0  0  0  0
  -34.4693   58.3111   64.3842 C   0  0  0  0  0  0  0  0  0  0  0  0
  -33.9115   58.0348   63.0214 C   0  0  0  0  0  0  0  0  0  0  0  0
  -32.4643   58.3094   62.7431 C   0  0  0  0  0  0  0  0  0  0  0  0
  -34.7017   57.5488   62.0526 C   0  0  0  0  0  0  0  0  0  0  0  0
  -40.2616   56.1775   62.5226 C   0  0  0  0  0  0  0  0  0  0  0  0
  -40.7587   56.6169   63.8945 C   0  0  0  0  0  0  0  0  0  0  0  0
  -42.2445   56.9003   63.8417 C   0  0  0  0  0  0  0  0  0  0  0  0
  -42.8378   57.5262   62.6180 C   0  0  0  0  0  0  0  0  0  0  0  0
  -43.0340   56.5850   64.8791 C   0  0  0  0  0  0  0  0  0  0  0  0
  -45.1467   56.3394   66.0225 O   0  0  0  0  0  0  0  0  0  0  0  0
  -44.5207   56.8561   64.8428 C   0  0  0  0  0  0  0  0  0  0  0  0
  -46.0994   56.5191   65.9881 H   0  0  0  0  0  0  0  0  0  0  0  0
  6  7  1  0  0  0
 15 16  1  0  0  0
 15 17  1  0  0  0
  7  8  1  0  0  0
  7  9  2  0  0  0
  9  5  1  0  0  0
  5  4  1  0  0  0
  4  1  1  0  0  0
  1  2  1  0  0  0
  1  3  2  0  0  0
  3 10  1  0  0  0
 10 11  1  0  0  0
 11 12  1  0  0  0
 12 13  1  0  0  0
 12 14  2  0  0  0
 14 16  1  0  0  0
M  END
> <minimizedAffinity>
-7.02844

> <CNNscore>
0.7064650655

> <CNNaffinity>
5.8041639328

> <CNN_VS>
4.1004390717

> <CNNaffinity_variance>
0.0372686982

$$$$
/media/chris/experiments/cd1a-new-docking/inputs/ligands/6nux_ligand.pdb


 17 16  0  0  0  0  0  0  0  0999 V2000
  -38.4402   57.5555   61.3816 C   0  0  0  0  0  0  0  0  0  0  0  0
  -39.4578   58.2244   60.5019 C   0  0  0  0  0  0  0  0  0  0  0  0
  -38.8427   56.6290   62.2628 C   0  0  0  0  0  0  0  0  0  0  0  0
  -36.9725   57.9129   61.2777 C   0  0  0  0  0  0  0  0  0  0  0  0
  -36.1630   57.1879   62.3478 C   0  0  0  0  0  0  0  0  0  0  0  0
  -34.6116   58.6103   64.2918 C   0  0  0  0  0  0  0  0  0  0  0  0
  -33.9601   58.0801   63.0512 C   0  0  0  0  0  0  0  0  0  0  0  0
  -32.4936   58.3005   62.8319 C   0  0  0  0  0  0  0  0  0  0  0  0
  -34.6837   57.4155   62.1380 C   0  0  0  0  0  0  0  0  0  0  0  0
  -40.3056   56.2637   62.3672 C   0  0  0  0  0  0  0  0  0  0  0  0
  -40.7788   56.3963   63.8097 C   0  0  0  0  0  0  0  0  0  0  0  0
  -40.9506   57.8568   64.1673 C   0  0  0  0  0  0  0  0  0  0  0  0
  -41.8573   58.7204   63.3465 C   0  0  0  0  0  0  0  0  0  0  0  0
  -40.3045   58.3796   65.2200 C   0  0  0  0  0  0  0  0  0  0  0  0
  -39.2178   60.3733   66.0418 O   0  0  0  0  0  0  0  0  0  0  0  0
  -40.4672   59.8349   65.5953 C   0  0  0  0  0  0  0  0  0  0  0  0
  -39.3343   61.3065   66.2795 H   0  0  0  0  0  0  0  0  0  0  0  0
  6  7  1  0  0  0
 15 16  1  0  0  0
 15 17  1  0  0  0
  7  8  1  0  0  0
  7  9  2  0  0  0
  9  5  1  0  0  0
  5  4  1  0  0  0
  4  1  1  0  0  0
  1  2  1  0  0  0
  1  3  2  0  0  0
  3 10  1  0  0  0
 10 11  1  0  0  0
 11 12  1  0  0  0
 12 13  1  0  0  0
 12 14  2  0  0  0
 14 16  1  0  0  0
M  END
> <minimizedAffinity>
-6.85733

> <CNNscore>
0.6574686766

> <CNNaffinity>
5.6329469681

> <CNN_VS>
3.7034862041

> <CNNaffinity_variance>
0.0152929481

$$$$
/media/chris/experiments/cd1a-new-docking/inputs/ligands/6nux_ligand.pdb


 17 16  0  0  0  0  0  0  0  0999 V2000
  -37.4998   57.2643   63.6335 C   0  0  0  0  0  0  0  0  0  0  0  0
  -38.4994   57.6769   64.6763 C   0  0  0  0  0  0  0  0  0  0  0  0
  -37.9359   56.8130   62.4491 C   0  0  0  0  0  0  0  0  0  0  0  0
  -36.0133   57.3588   63.9058 C   0  0  0  0  0  0  0  0  0  0  0  0
  -35.2168   57.2060   62.6142 C   0  0  0  0  0  0  0  0  0  0  0  0
  -32.4932   56.5026   62.0695 C   0  0  0  0  0  0  0  0  0  0  0  0
  -32.8748   57.9382   62.2642 C   0  0  0  0  0  0  0  0  0  0  0  0
  -31.8236   59.0033   62.1753 C   0  0  0  0  0  0  0  0  0  0  0  0
  -34.1485   58.2710   62.5214 C   0  0  0  0  0  0  0  0  0  0  0  0
  -39.4183   56.7218   62.1691 C   0  0  0  0  0  0  0  0  0  0  0  0
  -39.7825   57.5957   60.9750 C   0  0  0  0  0  0  0  0  0  0  0  0
  -40.1168   58.9966   61.4399 C   0  0  0  0  0  0  0  0  0  0  0  0
  -39.4270   60.1700   60.8166 C   0  0  0  0  0  0  0  0  0  0  0  0
  -41.0339   59.1941   62.3985 C   0  0  0  0  0  0  0  0  0  0  0  0
  -40.7785   60.8428   64.1443 O   0  0  0  0  0  0  0  0  0  0  0  0
  -41.3844   60.5860   62.8725 C   0  0  0  0  0  0  0  0  0  0  0  0
  -41.0101   61.7379   64.4379 H   0  0  0  0  0  0  0  0  0  0  0  0
  6  7  1  0  0  0
 15 16  1  0  0  0
 15 17  1  0  0  0
  7  8  1  0  0  0
  7  9  2  0  0  0
  9  5  1  0  0  0
  5  4  1  0  0  0
  4  1  1  0  0  0
  1  2  1  0  0  0
  1  3  2  0  0  0
  3 10  1  0  0  0
 10 11  1  0  0  0
 11 12  1  0  0  0
 12 13  1  0  0  0
 12 14  2  0  0  0
 14 16  1  0  0  0
M  END
> <minimizedAffinity>
-6.80740

> <CNNscore>
0.5883841515

> <CNNaffinity>
5.4864425659

> <CNN_VS>
3.2281358242

> <CNNaffinity_variance>
0.0536330938

$$$$
/media/chris/experiments/cd1a-new-docking/inputs/ligands/6nux_ligand.pdb


 17 16  0  0  0  0  0  0  0  0999 V2000
  -38.7277   57.4663   61.4736 C   0  0  0  0  0  0  0  0  0  0  0  0
  -38.6303   58.5476   60.4353 C   0  0  0  0  0  0  0  0  0  0  0  0
  -37.6109   57.0295   62.0723 C   0  0  0  0  0  0  0  0  0  0  0  0
  -40.0691   56.8738   61.8507 C   0  0  0  0  0  0  0  0  0  0  0  0
  -40.1416   56.6133   63.3517 C   0  0  0  0  0  0  0  0  0  0  0  0
  -38.3800   57.7994   65.2750 C   0  0  0  0  0  0  0  0  0  0  0  0
  -39.7106   58.4250   64.9874 C   0  0  0  0  0  0  0  0  0  0  0  0
  -40.1157   59.6725   65.7133 C   0  0  0  0  0  0  0  0  0  0  0  0
  -40.5387   57.8713   64.0891 C   0  0  0  0  0  0  0  0  0  0  0  0
  -36.2696   57.6210   61.7044 C   0  0  0  0  0  0  0  0  0  0  0  0
  -35.3334   57.5889   62.9064 C   0  0  0  0  0  0  0  0  0  0  0  0
  -33.8972   57.7262   62.4493 C   0  0  0  0  0  0  0  0  0  0  0  0
  -33.2171   56.5716   61.7815 C   0  0  0  0  0  0  0  0  0  0  0  0
  -33.2336   58.8778   62.6289 C   0  0  0  0  0  0  0  0  0  0  0  0
  -31.4860   60.4212   62.0005 O   0  0  0  0  0  0  0  0  0  0  0  0
  -31.8004   59.0352   62.1749 C   0  0  0  0  0  0  0  0  0  0  0  0
  -30.5649   60.5098   61.7095 H   0  0  0  0  0  0  0  0  0  0  0  0
  6  7  1  0  0  0
 15 16  1  0  0  0
 15 17  1  0  0  0
  7  8  1  0  0  0
  7  9  2  0  0  0
  9  5  1  0  0  0
  5  4  1  0  0  0
  4  1  1  0  0  0
  1  2  1  0  0  0
  1  3  2  0  0  0
  3 10  1  0  0  0
 10 11  1  0  0  0
 11 12  1  0  0  0
 12 13  1  0  0  0
 12 14  2  0  0  0
 14 16  1  0  0  0
M  END
> <minimizedAffinity>
-7.01910

> <CNNscore>
0.5639255047

> <CNNaffinity>
5.6570243835

> <CNN_VS>
3.1901402473

> <CNNaffinity_variance>
0.0675030425

$$$$
/media/chris/experiments/cd1a-new-docking/inputs/ligands/6nux_ligand.pdb


 17 16  0  0  0  0  0  0  0  0999 V2000
  -38.6658   58.0617   61.3007 C   0  0  0  0  0  0  0  0  0  0  0  0
  -38.1769   59.4463   60.9831 C   0  0  0  0  0  0  0  0  0  0  0  0
  -37.8534   57.2105   61.9427 C   0  0  0  0  0  0  0  0  0  0  0  0
  -40.0617   57.6248   60.9092 C   0  0  0  0  0  0  0  0  0  0  0  0
  -40.5673   56.5309   61.8439 C   0  0  0  0  0  0  0  0  0  0  0  0
  -41.7077   54.8603   63.8732 C   0  0  0  0  0  0  0  0  0  0  0  0
  -41.8778   56.3472   63.9398 C   0  0  0  0  0  0  0  0  0  0  0  0
  -42.6499   56.9552   65.0718 C   0  0  0  0  0  0  0  0  0  0  0  0
  -41.3470   57.1323   62.9904 C   0  0  0  0  0  0  0  0  0  0  0  0
  -36.4610   57.6426   62.3413 C   0  0  0  0  0  0  0  0  0  0  0  0
  -36.2569   57.4425   63.8381 C   0  0  0  0  0  0  0  0  0  0  0  0
  -37.2825   58.2413   64.6131 C   0  0  0  0  0  0  0  0  0  0  0  0
  -38.4188   57.5359   65.2860 C   0  0  0  0  0  0  0  0  0  0  0  0
  -37.1743   59.5746   64.7097 C   0  0  0  0  0  0  0  0  0  0  0  0
  -37.5200   61.2692   66.3949 O   0  0  0  0  0  0  0  0  0  0  0  0
  -38.1862   60.3887   65.4833 C   0  0  0  0  0  0  0  0  0  0  0  0
  -38.1786   61.7860   66.8851 H   0  0  0  0  0  0  0  0  0  0  0  0
  6  7  1  0  0  0
 15 16  1  0  0  0
 15 17  1  0  0  0
  7  8  1  0  0  0
  7  9  2  0  0  0
  9  5  1  0  0  0
  5  4  1  0  0  0
  4  1  1  0  0  0
  1  2  1  0  0  0
  1  3  2  0  0  0
  3 10  1  0  0  0
 10 11  1  0  0  0
 11 12  1  0  0  0
 12 13  1  0  0  0
 12 14  2  0  0  0
 14 16  1  0  0  0
M  END
> <minimizedAffinity>
-6.53579

> <CNNscore>
0.5613039732

> <CNNaffinity>
5.5227665901

> <CNN_VS>
3.0999507904

> <CNNaffinity_variance>
0.0230262168

$$$$
/media/chris/experiments/cd1a-new-docking/inputs/ligands/6nux_ligand.pdb


 17 16  0  0  0  0  0  0  0  0999 V2000
  -44.1354   57.6801   63.0614 C   0  0  0  0  0  0  0  0  0  0  0  0
  -43.9826   57.0109   64.3978 C   0  0  0  0  0  0  0  0  0  0  0  0
  -43.0499   57.8837   62.3020 C   0  0  0  0  0  0  0  0  0  0  0  0
  -45.4976   58.1183   62.5664 C   0  0  0  0  0  0  0  0  0  0  0  0
  -45.5974   57.9638   61.0523 C   0  0  0  0  0  0  0  0  0  0  0  0
  -46.2965   57.6735   58.2889 C   0  0  0  0  0  0  0  0  0  0  0  0
  -47.3396   57.5027   59.3507 C   0  0  0  0  0  0  0  0  0  0  0  0
  -48.7506   57.1821   58.9589 C   0  0  0  0  0  0  0  0  0  0  0  0
  -47.0163   57.6399   60.6453 C   0  0  0  0  0  0  0  0  0  0  0  0
  -41.6882   57.4433   62.7880 C   0  0  0  0  0  0  0  0  0  0  0  0
  -40.9621   56.6738   61.6913 C   0  0  0  0  0  0  0  0  0  0  0  0
  -39.5829   57.2577   61.4736 C   0  0  0  0  0  0  0  0  0  0  0  0
  -38.4343   56.7790   62.3061 C   0  0  0  0  0  0  0  0  0  0  0  0
  -39.3811   58.1929   60.5336 C   0  0  0  0  0  0  0  0  0  0  0  0
  -37.9118   60.0693   60.9226 O   0  0  0  0  0  0  0  0  0  0  0  0
  -38.0099   58.7843   60.2986 C   0  0  0  0  0  0  0  0  0  0  0  0
  -37.0287   60.4386   60.7654 H   0  0  0  0  0  0  0  0  0  0  0  0
  6  7  1  0  0  0
 15 16  1  0  0  0
 15 17  1  0  0  0
  7  8  1  0  0  0
  7  9  2  0  0  0
  9  5  1  0  0  0
  5  4  1  0  0  0
  4  1  1  0  0  0
  1  2  1  0  0  0
  1  3  2  0  0  0
  3 10  1  0  0  0
 10 11  1  0  0  0
 11 12  1  0  0  0
 12 13  1  0  0  0
 12 14  2  0  0  0
 14 16  1  0  0  0
M  END
> <minimizedAffinity>
-7.26674

> <CNNscore>
0.5335738659

> <CNNaffinity>
5.7541723251

> <CNN_VS>
3.0702760220

> <CNNaffinity_variance>
0.4064751565

$$$$
/media/chris/experiments/cd1a-new-docking/inputs/ligands/6nux_ligand.pdb


 17 16  0  0  0  0  0  0  0  0999 V2000
  -49.9860   58.0088   61.2531 C   0  0  0  0  0  0  0  0  0  0  0  0
  -50.0544   59.4431   60.8116 C   0  0  0  0  0  0  0  0  0  0  0  0
  -49.6750   57.7286   62.5265 C   0  0  0  0  0  0  0  0  0  0  0  0
  -50.2692   56.8846   60.2790 C   0  0  0  0  0  0  0  0  0  0  0  0
  -48.9865   56.1373   59.9291 C   0  0  0  0  0  0  0  0  0  0  0  0
  -46.5498   57.5117   60.5477 C   0  0  0  0  0  0  0  0  0  0  0  0
  -47.0797   57.5139   59.1464 C   0  0  0  0  0  0  0  0  0  0  0  0
  -46.3296   58.2411   58.0713 C   0  0  0  0  0  0  0  0  0  0  0  0
  -48.2212   56.8732   58.8536 C   0  0  0  0  0  0  0  0  0  0  0  0
  -49.3970   58.8465   63.5050 C   0  0  0  0  0  0  0  0  0  0  0  0
  -49.4851   58.3274   64.9350 C   0  0  0  0  0  0  0  0  0  0  0  0
  -48.0962   58.1540   65.5107 C   0  0  0  0  0  0  0  0  0  0  0  0
  -47.0278   59.1507   65.1845 C   0  0  0  0  0  0  0  0  0  0  0  0
  -47.8193   57.1200   66.3187 C   0  0  0  0  0  0  0  0  0  0  0  0
  -45.6300   56.1432   66.0284 O   0  0  0  0  0  0  0  0  0  0  0  0
  -46.4394   56.9329   66.9069 C   0  0  0  0  0  0  0  0  0  0  0  0
  -44.7479   56.0301   66.4157 H   0  0  0  0  0  0  0  0  0  0  0  0
  6  7  1  0  0  0
 15 16  1  0  0  0
 15 17  1  0  0  0
  7  8  1  0  0  0
  7  9  2  0  0  0
  9  5  1  0  0  0
  5  4  1  0  0  0
  4  1  1  0  0  0
  1  2  1  0  0  0
  1  3  2  0  0  0
  3 10  1  0  0  0
 10 11  1  0  0  0
 11 12  1  0  0  0
 12 13  1  0  0  0
 12 14  2  0  0  0
 14 16  1  0  0  0
M  END
> <minimizedAffinity>
-7.07039

> <CNNscore>
0.5250764489

> <CNNaffinity>
5.8043885231

> <CNN_VS>
3.0477476120

> <CNNaffinity_variance>
0.1925780475

$$$$
/media/chris/experiments/cd1a-new-docking/inputs/ligands/6nux_ligand.pdb


 17 16  0  0  0  0  0  0  0  0999 V2000
  -37.0213   57.7711   62.9680 C   0  0  0  0  0  0  0  0  0  0  0  0
  -37.6862   58.0209   64.2918 C   0  0  0  0  0  0  0  0  0  0  0  0
  -35.7104   58.0174   62.8357 C   0  0  0  0  0  0  0  0  0  0  0  0
  -37.8137   57.2416   61.7915 C   0  0  0  0  0  0  0  0  0  0  0  0
  -39.3117   57.3738   62.0459 C   0  0  0  0  0  0  0  0  0  0  0  0
  -41.9938   57.2254   63.0427 C   0  0  0  0  0  0  0  0  0  0  0  0
  -41.1428   55.9937   62.9873 C   0  0  0  0  0  0  0  0  0  0  0  0
  -41.7013   54.6849   63.4586 C   0  0  0  0  0  0  0  0  0  0  0  0
  -39.8860   56.0598   62.5231 C   0  0  0  0  0  0  0  0  0  0  0  0
  -34.9127   58.5406   64.0080 C   0  0  0  0  0  0  0  0  0  0  0  0
  -34.4531   59.9678   63.7361 C   0  0  0  0  0  0  0  0  0  0  0  0
  -35.4334   60.9520   64.3368 C   0  0  0  0  0  0  0  0  0  0  0  0
  -36.3976   61.6752   63.4486 C   0  0  0  0  0  0  0  0  0  0  0  0
  -35.4510   61.1727   65.6596 C   0  0  0  0  0  0  0  0  0  0  0  0
  -37.5750   61.4525   66.7738 O   0  0  0  0  0  0  0  0  0  0  0  0
  -36.4259   62.1484   66.2782 C   0  0  0  0  0  0  0  0  0  0  0  0
  -38.1928   62.0880   67.1681 H   0  0  0  0  0  0  0  0  0  0  0  0
  6  7  1  0  0  0
 15 16  1  0  0  0
 15 17  1  0  0  0
  7  8  1  0  0  0
  7  9  2  0  0  0
  9  5  1  0  0  0
  5  4  1  0  0  0
  4  1  1  0  0  0
  1  2  1  0  0  0
  1  3  2  0  0  0
  3 10  1  0  0  0
 10 11  1  0  0  0
 11 12  1  0  0  0
 12 13  1  0  0  0
 12 14  2  0  0  0
 14 16  1  0  0  0
M  END
> <minimizedAffinity>
-6.30425

> <CNNscore>
0.5248203874

> <CNNaffinity>
5.4346313477

> <CNN_VS>
2.8522052765

> <CNNaffinity_variance>
0.0109581286

$$$$
/media/chris/experiments/cd1a-new-docking/inputs/ligands/6nux_ligand.pdb


 17 16  0  0  0  0  0  0  0  0999 V2000
  -38.1761   57.3496   63.2078 C   0  0  0  0  0  0  0  0  0  0  0  0
  -38.4381   57.6375   64.6588 C   0  0  0  0  0  0  0  0  0  0  0  0
  -37.0597   57.8229   62.6365 C   0  0  0  0  0  0  0  0  0  0  0  0
  -39.1536   56.5297   62.3925 C   0  0  0  0  0  0  0  0  0  0  0  0
  -39.7744   57.3743   61.2846 C   0  0  0  0  0  0  0  0  0  0  0  0
  -39.4363   60.1425   60.6269 C   0  0  0  0  0  0  0  0  0  0  0  0
  -40.5314   59.7187   61.5574 C   0  0  0  0  0  0  0  0  0  0  0  0
  -41.4466   60.7509   62.1440 C   0  0  0  0  0  0  0  0  0  0  0  0
  -40.6913   58.4239   61.8691 C   0  0  0  0  0  0  0  0  0  0  0  0
  -36.0772   58.6370   63.4466 C   0  0  0  0  0  0  0  0  0  0  0  0
  -34.8861   57.7757   63.8483 C   0  0  0  0  0  0  0  0  0  0  0  0
  -33.7519   57.9672   62.8647 C   0  0  0  0  0  0  0  0  0  0  0  0
  -33.5101   56.9411   61.8016 C   0  0  0  0  0  0  0  0  0  0  0  0
  -32.9693   59.0542   62.9327 C   0  0  0  0  0  0  0  0  0  0  0  0
  -31.4798   60.6511   61.9020 O   0  0  0  0  0  0  0  0  0  0  0  0
  -31.8347   59.2650   61.9562 C   0  0  0  0  0  0  0  0  0  0  0  0
  -30.7515   60.7741   61.2730 H   0  0  0  0  0  0  0  0  0  0  0  0
  6  7  1  0  0  0
 15 16  1  0  0  0
 15 17  1  0  0  0
  7  8  1  0  0  0
  7  9  2  0  0  0
  9  5  1  0  0  0
  5  4  1  0  0  0
  4  1  1  0  0  0
  1  2  1  0  0  0
  1  3  2  0  0  0
  3 10  1  0  0  0
 10 11  1  0  0  0
 11 12  1  0  0  0
 12 13  1  0  0  0
 12 14  2  0  0  0
 14 16  1  0  0  0
M  END
> <minimizedAffinity>
-6.35624

> <CNNscore>
0.5235099196

> <CNNaffinity>
5.5881028175

> <CNN_VS>
2.9254271984

> <CNNaffinity_variance>
0.0121941883

$$$$
