/media/chris/experiments/cd1a-new-docking/inputs/ligands/6nux_ligand.pdb


 17 16  0  0  0  0  0  0  0  0999 V2000
  -50.0057   58.5702   61.0607 C   0  0  0  0  0  0  0  0  0  0  0  0
  -49.9524   60.0713   61.0338 C   0  0  0  0  0  0  0  0  0  0  0  0
  -49.5442   57.9167   62.1361 C   0  0  0  0  0  0  0  0  0  0  0  0
  -50.5781   57.7949   59.8927 C   0  0  0  0  0  0  0  0  0  0  0  0
  -49.5673   56.7782   59.3722 C   0  0  0  0  0  0  0  0  0  0  0  0
  -47.0382   55.4895   58.9821 C   0  0  0  0  0  0  0  0  0  0  0  0
  -47.2722   56.8666   58.4404 C   0  0  0  0  0  0  0  0  0  0  0  0
  -46.1754   57.5666   57.6960 C   0  0  0  0  0  0  0  0  0  0  0  0
  -48.4543   57.4738   58.6229 C   0  0  0  0  0  0  0  0  0  0  0  0
  -48.9771   58.6851   63.3075 C   0  0  0  0  0  0  0  0  0  0  0  0
  -49.6702   58.2639   64.5975 C   0  0  0  0  0  0  0  0  0  0  0  0
  -48.6544   58.1229   65.7104 C   0  0  0  0  0  0  0  0  0  0  0  0
  -48.8501   57.0798   66.7664 C   0  0  0  0  0  0  0  0  0  0  0  0
  -47.5756   58.9187   65.7511 C   0  0  0  0  0  0  0  0  0  0  0  0
  -45.4248   58.0284   66.3938 O   0  0  0  0  0  0  0  0  0  0  0  0
  -46.5478   58.7896   66.8520 C   0  0  0  0  0  0  0  0  0  0  0  0
  -44.7727   57.9523   67.1078 H   0  0  0  0  0  0  0  0  0  0  0  0
  6  7  1  0  0  0
 15 16  1  0  0  0
 15 17  1  0  0  0
  7  8  1  0  0  0
  7  9  2  0  0  0
  9  5  1  0  0  0
  5  4  1  0  0  0
  4  1  1  0  0  0
  1  2  1  0  0  0
  1  3  2  0  0  0
  3 10  1  0  0  0
 10 11  1  0  0  0
 11 12  1  0  0  0
 12 13  1  0  0  0
 12 14  2  0  0  0
 14 16  1  0  0  0
M  END
> <minimizedAffinity>
-7.18501

> <CNNscore>
0.8490243554

> <CNNaffinity>
6.1020555496

> <CNN_VS>
5.1807937622

> <CNNaffinity_variance>
0.2049133480

$$$$
/media/chris/experiments/cd1a-new-docking/inputs/ligands/6nux_ligand.pdb


 17 16  0  0  0  0  0  0  0  0999 V2000
  -38.6223   57.7708   61.2839 C   0  0  0  0  0  0  0  0  0  0  0  0
  -39.5313   58.7712   60.6282 C   0  0  0  0  0  0  0  0  0  0  0  0
  -39.1560   56.7295   61.9376 C   0  0  0  0  0  0  0  0  0  0  0  0
  -37.1180   57.9254   61.2078 C   0  0  0  0  0  0  0  0  0  0  0  0
  -36.4386   57.1580   62.3373 C   0  0  0  0  0  0  0  0  0  0  0  0
  -35.0071   58.6656   64.3090 C   0  0  0  0  0  0  0  0  0  0  0  0
  -34.2701   58.0147   63.1786 C   0  0  0  0  0  0  0  0  0  0  0  0
  -32.7810   58.1589   63.0839 C   0  0  0  0  0  0  0  0  0  0  0  0
  -34.9372   57.3099   62.2526 C   0  0  0  0  0  0  0  0  0  0  0  0
  -40.6568   56.5665   62.0120 C   0  0  0  0  0  0  0  0  0  0  0  0
  -41.0279   55.6330   63.1578 C   0  0  0  0  0  0  0  0  0  0  0  0
  -41.8182   56.3862   64.2058 C   0  0  0  0  0  0  0  0  0  0  0  0
  -41.3155   57.7030   64.7106 C   0  0  0  0  0  0  0  0  0  0  0  0
  -42.9703   55.8872   64.6774 C   0  0  0  0  0  0  0  0  0  0  0  0
  -45.1382   56.1866   65.6984 O   0  0  0  0  0  0  0  0  0  0  0  0
  -43.7759   56.6273   65.7207 C   0  0  0  0  0  0  0  0  0  0  0  0
  -45.6448   56.6679   66.3711 H   0  0  0  0  0  0  0  0  0  0  0  0
  6  7  1  0  0  0
 15 16  1  0  0  0
 15 17  1  0  0  0
  7  8  1  0  0  0
  7  9  2  0  0  0
  9  5  1  0  0  0
  5  4  1  0  0  0
  4  1  1  0  0  0
  1  2  1  0  0  0
  1  3  2  0  0  0
  3 10  1  0  0  0
 10 11  1  0  0  0
 11 12  1  0  0  0
 12 13  1  0  0  0
 12 14  2  0  0  0
 14 16  1  0  0  0
M  END
> <minimizedAffinity>
-7.01262

> <CNNscore>
0.7387155294

> <CNNaffinity>
5.7937455177

> <CNN_VS>
4.2799296379

> <CNNaffinity_variance>
0.0218901243

$$$$
/media/chris/experiments/cd1a-new-docking/inputs/ligands/6nux_ligand.pdb


 17 16  0  0  0  0  0  0  0  0999 V2000
  -38.4312   57.5529   61.4034 C   0  0  0  0  0  0  0  0  0  0  0  0
  -39.4822   58.2007   60.5474 C   0  0  0  0  0  0  0  0  0  0  0  0
  -38.7975   56.6373   62.3112 C   0  0  0  0  0  0  0  0  0  0  0  0
  -36.9706   57.9195   61.2459 C   0  0  0  0  0  0  0  0  0  0  0  0
  -36.1213   57.2197   62.3020 C   0  0  0  0  0  0  0  0  0  0  0  0
  -34.4948   58.4381   64.3217 C   0  0  0  0  0  0  0  0  0  0  0  0
  -33.8937   58.0475   63.0061 C   0  0  0  0  0  0  0  0  0  0  0  0
  -32.4380   58.3002   62.7520 C   0  0  0  0  0  0  0  0  0  0  0  0
  -34.6526   57.4788   62.0575 C   0  0  0  0  0  0  0  0  0  0  0  0
  -40.2532   56.2629   62.4692 C   0  0  0  0  0  0  0  0  0  0  0  0
  -40.6894   56.4480   63.9175 C   0  0  0  0  0  0  0  0  0  0  0  0
  -40.8500   57.9207   64.2270 C   0  0  0  0  0  0  0  0  0  0  0  0
  -41.8419   58.7371   63.4581 C   0  0  0  0  0  0  0  0  0  0  0  0
  -40.1176   58.4964   65.1918 C   0  0  0  0  0  0  0  0  0  0  0  0
  -39.1716   60.4061   66.3276 O   0  0  0  0  0  0  0  0  0  0  0  0
  -40.2675   59.9647   65.5185 C   0  0  0  0  0  0  0  0  0  0  0  0
  -39.2785   61.3485   66.5307 H   0  0  0  0  0  0  0  0  0  0  0  0
  6  7  1  0  0  0
 15 16  1  0  0  0
 15 17  1  0  0  0
  7  8  1  0  0  0
  7  9  2  0  0  0
  9  5  1  0  0  0
  5  4  1  0  0  0
  4  1  1  0  0  0
  1  2  1  0  0  0
  1  3  2  0  0  0
  3 10  1  0  0  0
 10 11  1  0  0  0
 11 12  1  0  0  0
 12 13  1  0  0  0
 12 14  2  0  0  0
 14 16  1  0  0  0
M  END
> <minimizedAffinity>
-6.88550

> <CNNscore>
0.6389768124

> <CNNaffinity>
5.6083884239

> <CNN_VS>
3.5836300850

> <CNNaffinity_variance>
0.0184638314

$$$$
/media/chris/experiments/cd1a-new-docking/inputs/ligands/6nux_ligand.pdb


 17 16  0  0  0  0  0  0  0  0999 V2000
  -48.9946   58.8869   65.1883 C   0  0  0  0  0  0  0  0  0  0  0  0
  -49.7992   59.4709   66.3146 C   0  0  0  0  0  0  0  0  0  0  0  0
  -47.6596   59.0058   65.2056 C   0  0  0  0  0  0  0  0  0  0  0  0
  -49.6747   58.1650   64.0442 C   0  0  0  0  0  0  0  0  0  0  0  0
  -48.7778   58.1420   62.8108 C   0  0  0  0  0  0  0  0  0  0  0  0
  -49.9557   59.8735   60.8554 C   0  0  0  0  0  0  0  0  0  0  0  0
  -50.0708   58.3867   60.7104 C   0  0  0  0  0  0  0  0  0  0  0  0
  -50.8075   57.8110   59.5386 C   0  0  0  0  0  0  0  0  0  0  0  0
  -49.5223   57.5731   61.6250 C   0  0  0  0  0  0  0  0  0  0  0  0
  -46.9745   59.7202   66.3477 C   0  0  0  0  0  0  0  0  0  0  0  0
  -46.2674   58.7146   67.2481 C   0  0  0  0  0  0  0  0  0  0  0  0
  -44.9537   58.2942   66.6253 C   0  0  0  0  0  0  0  0  0  0  0  0
  -43.8206   59.2701   66.5526 C   0  0  0  0  0  0  0  0  0  0  0  0
  -44.7947   57.0510   66.1479 C   0  0  0  0  0  0  0  0  0  0  0  0
  -43.5798   56.6565   64.0985 O   0  0  0  0  0  0  0  0  0  0  0  0
  -43.4885   56.6113   65.5268 C   0  0  0  0  0  0  0  0  0  0  0  0
  -42.7370   56.3726   63.7114 H   0  0  0  0  0  0  0  0  0  0  0  0
  6  7  1  0  0  0
 15 16  1  0  0  0
 15 17  1  0  0  0
  7  8  1  0  0  0
  7  9  2  0  0  0
  9  5  1  0  0  0
  5  4  1  0  0  0
  4  1  1  0  0  0
  1  2  1  0  0  0
  1  3  2  0  0  0
  3 10  1  0  0  0
 10 11  1  0  0  0
 11 12  1  0  0  0
 12 13  1  0  0  0
 12 14  2  0  0  0
 14 16  1  0  0  0
M  END
> <minimizedAffinity>
-6.53867

> <CNNscore>
0.5971095562

> <CNNaffinity>
5.6754937172

> <CNN_VS>
3.3888914585

> <CNNaffinity_variance>
0.1406252384

$$$$
/media/chris/experiments/cd1a-new-docking/inputs/ligands/6nux_ligand.pdb


 17 16  0  0  0  0  0  0  0  0999 V2000
  -49.8887   58.8762   61.1857 C   0  0  0  0  0  0  0  0  0  0  0  0
  -49.8936   60.3778   61.1390 C   0  0  0  0  0  0  0  0  0  0  0  0
  -49.5318   58.2566   62.3195 C   0  0  0  0  0  0  0  0  0  0  0  0
  -50.2864   58.0626   59.9723 C   0  0  0  0  0  0  0  0  0  0  0  0
  -49.3620   56.8617   59.8007 C   0  0  0  0  0  0  0  0  0  0  0  0
  -46.6468   57.6574   60.2521 C   0  0  0  0  0  0  0  0  0  0  0  0
  -47.1479   57.4513   58.8553 C   0  0  0  0  0  0  0  0  0  0  0  0
  -46.2218   57.6662   57.6962 C   0  0  0  0  0  0  0  0  0  0  0  0
  -48.4190   57.0807   58.6401 C   0  0  0  0  0  0  0  0  0  0  0  0
  -49.1394   59.0631   63.5359 C   0  0  0  0  0  0  0  0  0  0  0  0
  -49.7072   58.4229   64.7967 C   0  0  0  0  0  0  0  0  0  0  0  0
  -48.6209   57.6647   65.5283 C   0  0  0  0  0  0  0  0  0  0  0  0
  -47.2244   57.6626   64.9883 C   0  0  0  0  0  0  0  0  0  0  0  0
  -48.8984   57.0038   66.6619 C   0  0  0  0  0  0  0  0  0  0  0  0
  -47.7686   54.8893   66.9517 O   0  0  0  0  0  0  0  0  0  0  0  0
  -47.8256   56.2450   67.4091 C   0  0  0  0  0  0  0  0  0  0  0  0
  -47.0775   54.4128   67.4377 H   0  0  0  0  0  0  0  0  0  0  0  0
  6  7  1  0  0  0
 15 16  1  0  0  0
 15 17  1  0  0  0
  7  8  1  0  0  0
  7  9  2  0  0  0
  9  5  1  0  0  0
  5  4  1  0  0  0
  4  1  1  0  0  0
  1  2  1  0  0  0
  1  3  2  0  0  0
  3 10  1  0  0  0
 10 11  1  0  0  0
 11 12  1  0  0  0
 12 13  1  0  0  0
 12 14  2  0  0  0
 14 16  1  0  0  0
M  END
> <minimizedAffinity>
-7.56710

> <CNNscore>
0.5863813758

> <CNNaffinity>
5.9083127975

> <CNN_VS>
3.4645245075

> <CNNaffinity_variance>
0.1405586749

$$$$
/media/chris/experiments/cd1a-new-docking/inputs/ligands/6nux_ligand.pdb


 17 16  0  0  0  0  0  0  0  0999 V2000
  -49.1981   59.2563   61.6079 C   0  0  0  0  0  0  0  0  0  0  0  0
  -50.0241   58.2053   60.9223 C   0  0  0  0  0  0  0  0  0  0  0  0
  -48.9184   59.1232   62.9120 C   0  0  0  0  0  0  0  0  0  0  0  0
  -48.6777   60.4539   60.8414 C   0  0  0  0  0  0  0  0  0  0  0  0
  -47.1991   60.2816   60.5093 C   0  0  0  0  0  0  0  0  0  0  0  0
  -46.2239   57.5976   60.2755 C   0  0  0  0  0  0  0  0  0  0  0  0
  -46.5777   58.3790   59.0471 C   0  0  0  0  0  0  0  0  0  0  0  0
  -46.4161   57.7498   57.6961 C   0  0  0  0  0  0  0  0  0  0  0  0
  -47.0326   59.6365   59.1527 C   0  0  0  0  0  0  0  0  0  0  0  0
  -49.4300   57.9271   63.6813 C   0  0  0  0  0  0  0  0  0  0  0  0
  -49.9461   58.3623   65.0475 C   0  0  0  0  0  0  0  0  0  0  0  0
  -48.8696   58.1713   66.0939 C   0  0  0  0  0  0  0  0  0  0  0  0
  -48.1579   59.3640   66.6531 C   0  0  0  0  0  0  0  0  0  0  0  0
  -48.5565   56.9426   66.5308 C   0  0  0  0  0  0  0  0  0  0  0  0
  -46.2717   56.2916   66.9642 O   0  0  0  0  0  0  0  0  0  0  0  0
  -47.4876   56.7324   67.5789 C   0  0  0  0  0  0  0  0  0  0  0  0
  -45.5941   56.1603   67.6456 H   0  0  0  0  0  0  0  0  0  0  0  0
  6  7  1  0  0  0
 15 16  1  0  0  0
 15 17  1  0  0  0
  7  8  1  0  0  0
  7  9  2  0  0  0
  9  5  1  0  0  0
  5  4  1  0  0  0
  4  1  1  0  0  0
  1  2  1  0  0  0
  1  3  2  0  0  0
  3 10  1  0  0  0
 10 11  1  0  0  0
 11 12  1  0  0  0
 12 13  1  0  0  0
 12 14  2  0  0  0
 14 16  1  0  0  0
M  END
> <minimizedAffinity>
-7.07819

> <CNNscore>
0.5494946837

> <CNNaffinity>
5.7728538513

> <CNN_VS>
3.1721525192

> <CNNaffinity_variance>
0.0908685327

$$$$
/media/chris/experiments/cd1a-new-docking/inputs/ligands/6nux_ligand.pdb


 17 16  0  0  0  0  0  0  0  0999 V2000
  -44.2374   58.4681   62.3321 C   0  0  0  0  0  0  0  0  0  0  0  0
  -43.6916   59.8136   62.7177 C   0  0  0  0  0  0  0  0  0  0  0  0
  -43.4037   57.4220   62.2471 C   0  0  0  0  0  0  0  0  0  0  0  0
  -45.7129   58.2843   62.0462 C   0  0  0  0  0  0  0  0  0  0  0  0
  -45.9863   58.3615   60.5477 C   0  0  0  0  0  0  0  0  0  0  0  0
  -46.2786   57.8778   57.7388 C   0  0  0  0  0  0  0  0  0  0  0  0
  -46.6878   56.8306   58.7290 C   0  0  0  0  0  0  0  0  0  0  0  0
  -47.2530   55.5303   58.2420 C   0  0  0  0  0  0  0  0  0  0  0  0
  -46.5543   57.0544   60.0448 C   0  0  0  0  0  0  0  0  0  0  0  0
  -41.9308   57.5979   62.5370 C   0  0  0  0  0  0  0  0  0  0  0  0
  -41.1064   56.6733   61.6495 C   0  0  0  0  0  0  0  0  0  0  0  0
  -39.7118   57.2331   61.4707 C   0  0  0  0  0  0  0  0  0  0  0  0
  -38.5933   56.7274   62.3279 C   0  0  0  0  0  0  0  0  0  0  0  0
  -39.4694   58.1709   60.5430 C   0  0  0  0  0  0  0  0  0  0  0  0
  -38.0193   60.0773   60.8504 O   0  0  0  0  0  0  0  0  0  0  0  0
  -38.0822   58.7384   60.3465 C   0  0  0  0  0  0  0  0  0  0  0  0
  -37.1256   60.4307   60.7190 H   0  0  0  0  0  0  0  0  0  0  0  0
  6  7  1  0  0  0
 15 16  1  0  0  0
 15 17  1  0  0  0
  7  8  1  0  0  0
  7  9  2  0  0  0
  9  5  1  0  0  0
  5  4  1  0  0  0
  4  1  1  0  0  0
  1  2  1  0  0  0
  1  3  2  0  0  0
  3 10  1  0  0  0
 10 11  1  0  0  0
 11 12  1  0  0  0
 12 13  1  0  0  0
 12 14  2  0  0  0
 14 16  1  0  0  0
M  END
> <minimizedAffinity>
-7.49472

> <CNNscore>
0.5236801505

> <CNNaffinity>
5.5922050476

> <CNN_VS>
2.9285268784

> <CNNaffinity_variance>
0.1726858318

$$$$
/media/chris/experiments/cd1a-new-docking/inputs/ligands/6nux_ligand.pdb


 17 16  0  0  0  0  0  0  0  0999 V2000
  -38.6872   57.7657   61.2939 C   0  0  0  0  0  0  0  0  0  0  0  0
  -37.9141   58.8955   60.6752 C   0  0  0  0  0  0  0  0  0  0  0  0
  -38.0733   56.9483   62.1609 C   0  0  0  0  0  0  0  0  0  0  0  0
  -40.1462   57.5478   60.9527 C   0  0  0  0  0  0  0  0  0  0  0  0
  -40.7547   56.4713   61.8455 C   0  0  0  0  0  0  0  0  0  0  0  0
  -41.7347   54.8976   64.0300 C   0  0  0  0  0  0  0  0  0  0  0  0
  -42.0558   56.3589   63.9522 C   0  0  0  0  0  0  0  0  0  0  0  0
  -42.8944   56.9916   65.0216 C   0  0  0  0  0  0  0  0  0  0  0  0
  -41.6005   57.0983   62.9298 C   0  0  0  0  0  0  0  0  0  0  0  0
  -36.6187   57.1641   62.5100 C   0  0  0  0  0  0  0  0  0  0  0  0
  -36.4520   57.2778   64.0204 C   0  0  0  0  0  0  0  0  0  0  0  0
  -37.4326   58.2876   64.5763 C   0  0  0  0  0  0  0  0  0  0  0  0
  -38.6954   57.8155   65.2274 C   0  0  0  0  0  0  0  0  0  0  0  0
  -37.1731   59.6012   64.4987 C   0  0  0  0  0  0  0  0  0  0  0  0
  -37.6700   61.1145   66.3138 O   0  0  0  0  0  0  0  0  0  0  0  0
  -38.1382   60.6245   65.0525 C   0  0  0  0  0  0  0  0  0  0  0  0
  -38.2965   61.7696   66.6590 H   0  0  0  0  0  0  0  0  0  0  0  0
  6  7  1  0  0  0
 15 16  1  0  0  0
 15 17  1  0  0  0
  7  8  1  0  0  0
  7  9  2  0  0  0
  9  5  1  0  0  0
  5  4  1  0  0  0
  4  1  1  0  0  0
  1  2  1  0  0  0
  1  3  2  0  0  0
  3 10  1  0  0  0
 10 11  1  0  0  0
 11 12  1  0  0  0
 12 13  1  0  0  0
 12 14  2  0  0  0
 14 16  1  0  0  0
M  END
> <minimizedAffinity>
-6.66367

> <CNNscore>
0.5143585801

> <CNNaffinity>
5.4882316589

> <CNN_VS>
2.8229191303

> <CNNaffinity_variance>
0.0312996805

$$$$
/media/chris/experiments/cd1a-new-docking/inputs/ligands/6nux_ligand.pdb


 17 16  0  0  0  0  0  0  0  0999 V2000
  -41.7542   55.8009   63.7350 C   0  0  0  0  0  0  0  0  0  0  0  0
  -41.5156   54.3820   63.3029 C   0  0  0  0  0  0  0  0  0  0  0  0
  -41.0818   56.7918   63.1327 C   0  0  0  0  0  0  0  0  0  0  0  0
  -42.7457   56.1190   64.8342 C   0  0  0  0  0  0  0  0  0  0  0  0
  -43.2838   57.5380   64.6821 C   0  0  0  0  0  0  0  0  0  0  0  0
  -41.3939   59.5073   65.5534 C   0  0  0  0  0  0  0  0  0  0  0  0
  -42.5399   59.1215   66.4378 C   0  0  0  0  0  0  0  0  0  0  0  0
  -42.6903   59.7695   67.7812 C   0  0  0  0  0  0  0  0  0  0  0  0
  -43.4255   58.1985   66.0341 C   0  0  0  0  0  0  0  0  0  0  0  0
  -40.0951   56.4812   62.0308 C   0  0  0  0  0  0  0  0  0  0  0  0
  -38.6790   56.8150   62.4839 C   0  0  0  0  0  0  0  0  0  0  0  0
  -38.3071   58.2125   62.0378 C   0  0  0  0  0  0  0  0  0  0  0  0
  -38.0117   58.4769   60.5940 C   0  0  0  0  0  0  0  0  0  0  0  0
  -38.2507   59.2169   62.9248 C   0  0  0  0  0  0  0  0  0  0  0  0
  -36.5151   60.8920   62.8094 O   0  0  0  0  0  0  0  0  0  0  0  0
  -37.8859   60.6202   62.4972 C   0  0  0  0  0  0  0  0  0  0  0  0
  -36.2927   61.7941   62.5308 H   0  0  0  0  0  0  0  0  0  0  0  0
  6  7  1  0  0  0
 15 16  1  0  0  0
 15 17  1  0  0  0
  7  8  1  0  0  0
  7  9  2  0  0  0
  9  5  1  0  0  0
  5  4  1  0  0  0
  4  1  1  0  0  0
  1  2  1  0  0  0
  1  3  2  0  0  0
  3 10  1  0  0  0
 10 11  1  0  0  0
 11 12  1  0  0  0
 12 13  1  0  0  0
 12 14  2  0  0  0
 14 16  1  0  0  0
M  END
> <minimizedAffinity>
-6.23242

> <CNNscore>
0.5089349747

> <CNNaffinity>
5.3663229942

> <CNN_VS>
2.7311093807

> <CNNaffinity_variance>
0.0384144858

$$$$
