/media/chris/experiments/cd1a-new-docking/inputs/ligands/6nux_ligand.pdb


 17 16  0  0  0  0  0  0  0  0999 V2000
  -38.2062   57.5944   61.4194 C   0  0  0  0  0  0  0  0  0  0  0  0
  -39.2770   58.2034   60.5595 C   0  0  0  0  0  0  0  0  0  0  0  0
  -38.5540   56.7474   62.3984 C   0  0  0  0  0  0  0  0  0  0  0  0
  -36.7466   57.9230   61.1870 C   0  0  0  0  0  0  0  0  0  0  0  0
  -35.8717   57.2849   62.2611 C   0  0  0  0  0  0  0  0  0  0  0  0
  -34.3567   59.1330   63.8420 C   0  0  0  0  0  0  0  0  0  0  0  0
  -33.7030   58.3966   62.7127 C   0  0  0  0  0  0  0  0  0  0  0  0
  -32.2534   58.6344   62.4135 C   0  0  0  0  0  0  0  0  0  0  0  0
  -34.4095   57.5323   61.9693 C   0  0  0  0  0  0  0  0  0  0  0  0
  -40.0089   56.4109   62.6316 C   0  0  0  0  0  0  0  0  0  0  0  0
  -40.4804   57.0046   63.9535 C   0  0  0  0  0  0  0  0  0  0  0  0
  -41.8050   56.3923   64.3544 C   0  0  0  0  0  0  0  0  0  0  0  0
  -42.1344   54.9941   63.9323 C   0  0  0  0  0  0  0  0  0  0  0  0
  -42.6806   57.0895   65.0933 C   0  0  0  0  0  0  0  0  0  0  0  0
  -45.0613   57.0196   64.6947 O   0  0  0  0  0  0  0  0  0  0  0  0
  -44.0064   56.4929   65.5073 C   0  0  0  0  0  0  0  0  0  0  0  0
  -45.9061   56.6301   64.9692 H   0  0  0  0  0  0  0  0  0  0  0  0
  6  7  1  0  0  0
 15 16  1  0  0  0
 15 17  1  0  0  0
  7  8  1  0  0  0
  7  9  2  0  0  0
  9  5  1  0  0  0
  5  4  1  0  0  0
  4  1  1  0  0  0
  1  2  1  0  0  0
  1  3  2  0  0  0
  3 10  1  0  0  0
 10 11  1  0  0  0
 11 12  1  0  0  0
 12 13  1  0  0  0
 12 14  2  0  0  0
 14 16  1  0  0  0
M  END
> <minimizedAffinity>
-6.97744

> <CNNscore>
0.8135562539

> <CNNaffinity>
5.7171678543

> <CNN_VS>
4.6512374878

> <CNNaffinity_variance>
0.0082444735

$$$$
/media/chris/experiments/cd1a-new-docking/inputs/ligands/6nux_ligand.pdb


 17 16  0  0  0  0  0  0  0  0999 V2000
  -42.5615   56.5222   63.7979 C   0  0  0  0  0  0  0  0  0  0  0  0
  -42.5638   57.9917   63.4858 C   0  0  0  0  0  0  0  0  0  0  0  0
  -41.7011   55.7172   63.1587 C   0  0  0  0  0  0  0  0  0  0  0  0
  -43.5131   55.9478   64.8261 C   0  0  0  0  0  0  0  0  0  0  0  0
  -44.0943   57.0535   65.7012 C   0  0  0  0  0  0  0  0  0  0  0  0
  -46.3961   58.0870   64.3437 C   0  0  0  0  0  0  0  0  0  0  0  0
  -46.5633   57.1736   65.5195 C   0  0  0  0  0  0  0  0  0  0  0  0
  -47.9409   56.8062   65.9827 C   0  0  0  0  0  0  0  0  0  0  0  0
  -45.4880   56.6896   66.1587 C   0  0  0  0  0  0  0  0  0  0  0  0
  -40.7448   56.2855   62.1356 C   0  0  0  0  0  0  0  0  0  0  0  0
  -39.3195   56.2538   62.6738 C   0  0  0  0  0  0  0  0  0  0  0  0
  -38.4370   57.1754   61.8600 C   0  0  0  0  0  0  0  0  0  0  0  0
  -36.9567   57.1753   62.0848 C   0  0  0  0  0  0  0  0  0  0  0  0
  -38.9704   57.9838   60.9324 C   0  0  0  0  0  0  0  0  0  0  0  0
  -38.0235   60.1957   60.7268 O   0  0  0  0  0  0  0  0  0  0  0  0
  -38.1045   58.9076   60.1067 C   0  0  0  0  0  0  0  0  0  0  0  0
  -37.4660   60.7792   60.1888 H   0  0  0  0  0  0  0  0  0  0  0  0
  6  7  1  0  0  0
 15 16  1  0  0  0
 15 17  1  0  0  0
  7  8  1  0  0  0
  7  9  2  0  0  0
  9  5  1  0  0  0
  5  4  1  0  0  0
  4  1  1  0  0  0
  1  2  1  0  0  0
  1  3  2  0  0  0
  3 10  1  0  0  0
 10 11  1  0  0  0
 11 12  1  0  0  0
 12 13  1  0  0  0
 12 14  2  0  0  0
 14 16  1  0  0  0
M  END
> <minimizedAffinity>
-6.53010

> <CNNscore>
0.6475732923

> <CNNaffinity>
5.7638559341

> <CNN_VS>
3.7325191498

> <CNNaffinity_variance>
0.3121597171

$$$$
/media/chris/experiments/cd1a-new-docking/inputs/ligands/6nux_ligand.pdb


 17 16  0  0  0  0  0  0  0  0999 V2000
  -37.4781   57.2806   63.6628 C   0  0  0  0  0  0  0  0  0  0  0  0
  -38.5018   57.6670   64.6922 C   0  0  0  0  0  0  0  0  0  0  0  0
  -37.8867   56.8494   62.4612 C   0  0  0  0  0  0  0  0  0  0  0  0
  -35.9982   57.3793   63.9676 C   0  0  0  0  0  0  0  0  0  0  0  0
  -35.1715   57.1765   62.7021 C   0  0  0  0  0  0  0  0  0  0  0  0
  -32.4603   56.5133   62.0544 C   0  0  0  0  0  0  0  0  0  0  0  0
  -32.8540   57.9426   62.2711 C   0  0  0  0  0  0  0  0  0  0  0  0
  -31.8212   59.0225   62.1498 C   0  0  0  0  0  0  0  0  0  0  0  0
  -34.1217   58.2566   62.5764 C   0  0  0  0  0  0  0  0  0  0  0  0
  -39.3624   56.7543   62.1488 C   0  0  0  0  0  0  0  0  0  0  0  0
  -39.7035   57.6310   60.9499 C   0  0  0  0  0  0  0  0  0  0  0  0
  -40.1366   59.0037   61.4173 C   0  0  0  0  0  0  0  0  0  0  0  0
  -39.6398   60.2220   60.7029 C   0  0  0  0  0  0  0  0  0  0  0  0
  -40.9701   59.1354   62.4597 C   0  0  0  0  0  0  0  0  0  0  0  0
  -40.7887   60.8159   64.1845 O   0  0  0  0  0  0  0  0  0  0  0  0
  -41.4175   60.4979   62.9379 C   0  0  0  0  0  0  0  0  0  0  0  0
  -41.0829   61.6912   64.4811 H   0  0  0  0  0  0  0  0  0  0  0  0
  6  7  1  0  0  0
 15 16  1  0  0  0
 15 17  1  0  0  0
  7  8  1  0  0  0
  7  9  2  0  0  0
  9  5  1  0  0  0
  5  4  1  0  0  0
  4  1  1  0  0  0
  1  2  1  0  0  0
  1  3  2  0  0  0
  3 10  1  0  0  0
 10 11  1  0  0  0
 11 12  1  0  0  0
 12 13  1  0  0  0
 12 14  2  0  0  0
 14 16  1  0  0  0
M  END
> <minimizedAffinity>
-6.80276

> <CNNscore>
0.6046547890

> <CNNaffinity>
5.5000905991

> <CNN_VS>
3.3256561756

> <CNNaffinity_variance>
0.0490524247

$$$$
/media/chris/experiments/cd1a-new-docking/inputs/ligands/6nux_ligand.pdb


 17 16  0  0  0  0  0  0  0  0999 V2000
  -38.4102   57.5387   61.3967 C   0  0  0  0  0  0  0  0  0  0  0  0
  -39.4522   58.2339   60.5675 C   0  0  0  0  0  0  0  0  0  0  0  0
  -38.7906   56.6058   62.2809 C   0  0  0  0  0  0  0  0  0  0  0  0
  -36.9428   57.8771   61.2388 C   0  0  0  0  0  0  0  0  0  0  0  0
  -36.1226   57.2643   62.3693 C   0  0  0  0  0  0  0  0  0  0  0  0
  -34.5349   59.1103   63.8798 C   0  0  0  0  0  0  0  0  0  0  0  0
  -33.9038   58.2798   62.8042 C   0  0  0  0  0  0  0  0  0  0  0  0
  -32.4385   58.4224   62.5214 C   0  0  0  0  0  0  0  0  0  0  0  0
  -34.6443   57.4162   62.0937 C   0  0  0  0  0  0  0  0  0  0  0  0
  -40.2532   56.2595   62.4390 C   0  0  0  0  0  0  0  0  0  0  0  0
  -40.6825   56.4409   63.8899 C   0  0  0  0  0  0  0  0  0  0  0  0
  -40.8494   57.9124   64.2015 C   0  0  0  0  0  0  0  0  0  0  0  0
  -41.8650   58.7190   63.4534 C   0  0  0  0  0  0  0  0  0  0  0  0
  -40.1017   58.4958   65.1497 C   0  0  0  0  0  0  0  0  0  0  0  0
  -39.1739   60.4031   66.3042 O   0  0  0  0  0  0  0  0  0  0  0  0
  -40.2576   59.9631   65.4782 C   0  0  0  0  0  0  0  0  0  0  0  0
  -39.2845   61.3449   66.5082 H   0  0  0  0  0  0  0  0  0  0  0  0
  6  7  1  0  0  0
 15 16  1  0  0  0
 15 17  1  0  0  0
  7  8  1  0  0  0
  7  9  2  0  0  0
  9  5  1  0  0  0
  5  4  1  0  0  0
  4  1  1  0  0  0
  1  2  1  0  0  0
  1  3  2  0  0  0
  3 10  1  0  0  0
 10 11  1  0  0  0
 11 12  1  0  0  0
 12 13  1  0  0  0
 12 14  2  0  0  0
 14 16  1  0  0  0
M  END
> <minimizedAffinity>
-6.85486

> <CNNscore>
0.5876375437

> <CNNaffinity>
5.5593843460

> <CNN_VS>
3.2669029236

> <CNNaffinity_variance>
0.0177144744

$$$$
/media/chris/experiments/cd1a-new-docking/inputs/ligands/6nux_ligand.pdb


 17 16  0  0  0  0  0  0  0  0999 V2000
  -47.7186   58.6686   62.8408 C   0  0  0  0  0  0  0  0  0  0  0  0
  -49.0508   57.9976   62.6622 C   0  0  0  0  0  0  0  0  0  0  0  0
  -47.5947   59.6503   63.7450 C   0  0  0  0  0  0  0  0  0  0  0  0
  -46.5213   58.2438   62.0170 C   0  0  0  0  0  0  0  0  0  0  0  0
  -46.7838   58.4618   60.5305 C   0  0  0  0  0  0  0  0  0  0  0  0
  -48.8762   57.1858   59.0461 C   0  0  0  0  0  0  0  0  0  0  0  0
  -47.4974   56.5998   59.0583 C   0  0  0  0  0  0  0  0  0  0  0  0
  -47.2199   55.3415   58.2920 C   0  0  0  0  0  0  0  0  0  0  0  0
  -46.5159   57.1932   59.7537 C   0  0  0  0  0  0  0  0  0  0  0  0
  -48.7847   60.0749   64.5745 C   0  0  0  0  0  0  0  0  0  0  0  0
  -48.5070   59.8349   66.0535 C   0  0  0  0  0  0  0  0  0  0  0  0
  -48.7841   58.3894   66.4057 C   0  0  0  0  0  0  0  0  0  0  0  0
  -50.1644   57.8352   66.2343 C   0  0  0  0  0  0  0  0  0  0  0  0
  -47.8001   57.5995   66.8600 C   0  0  0  0  0  0  0  0  0  0  0  0
  -47.4921   55.2926   66.2160 O   0  0  0  0  0  0  0  0  0  0  0  0
  -48.0568   56.1521   67.2124 C   0  0  0  0  0  0  0  0  0  0  0  0
  -47.6628   54.3676   66.4524 H   0  0  0  0  0  0  0  0  0  0  0  0
  6  7  1  0  0  0
 15 16  1  0  0  0
 15 17  1  0  0  0
  7  8  1  0  0  0
  7  9  2  0  0  0
  9  5  1  0  0  0
  5  4  1  0  0  0
  4  1  1  0  0  0
  1  2  1  0  0  0
  1  3  2  0  0  0
  3 10  1  0  0  0
 10 11  1  0  0  0
 11 12  1  0  0  0
 12 13  1  0  0  0
 12 14  2  0  0  0
 14 16  1  0  0  0
M  END
> <minimizedAffinity>
-6.45349

> <CNNscore>
0.5732279420

> <CNNaffinity>
5.9076995850

> <CNN_VS>
3.3864583969

> <CNNaffinity_variance>
0.2291258872

$$$$
/media/chris/experiments/cd1a-new-docking/inputs/ligands/6nux_ligand.pdb


 17 16  0  0  0  0  0  0  0  0999 V2000
  -37.9107   58.1401   62.0354 C   0  0  0  0  0  0  0  0  0  0  0  0
  -36.7376   57.2202   62.2210 C   0  0  0  0  0  0  0  0  0  0  0  0
  -38.0372   59.2106   62.8320 C   0  0  0  0  0  0  0  0  0  0  0  0
  -38.9415   57.8725   60.9590 C   0  0  0  0  0  0  0  0  0  0  0  0
  -40.3525   57.9380   61.5343 C   0  0  0  0  0  0  0  0  0  0  0  0
  -40.6035   56.9231   64.2020 C   0  0  0  0  0  0  0  0  0  0  0  0
  -41.0061   56.0758   63.0338 C   0  0  0  0  0  0  0  0  0  0  0  0
  -41.5380   54.6940   63.2686 C   0  0  0  0  0  0  0  0  0  0  0  0
  -40.8881   56.5468   61.7835 C   0  0  0  0  0  0  0  0  0  0  0  0
  -37.0085   59.4863   63.9045 C   0  0  0  0  0  0  0  0  0  0  0  0
  -37.6235   60.3227   65.0201 C   0  0  0  0  0  0  0  0  0  0  0  0
  -36.8301   61.5974   65.2105 C   0  0  0  0  0  0  0  0  0  0  0  0
  -36.6022   62.5108   64.0464 C   0  0  0  0  0  0  0  0  0  0  0  0
  -36.3393   61.9190   66.4165 C   0  0  0  0  0  0  0  0  0  0  0  0
  -34.6723   63.0473   67.7504 O   0  0  0  0  0  0  0  0  0  0  0  0
  -35.5487   63.1901   66.6271 C   0  0  0  0  0  0  0  0  0  0  0  0
  -34.1708   63.8680   67.8756 H   0  0  0  0  0  0  0  0  0  0  0  0
  6  7  1  0  0  0
 15 16  1  0  0  0
 15 17  1  0  0  0
  7  8  1  0  0  0
  7  9  2  0  0  0
  9  5  1  0  0  0
  5  4  1  0  0  0
  4  1  1  0  0  0
  1  2  1  0  0  0
  1  3  2  0  0  0
  3 10  1  0  0  0
 10 11  1  0  0  0
 11 12  1  0  0  0
 12 13  1  0  0  0
 12 14  2  0  0  0
 14 16  1  0  0  0
M  END
> <minimizedAffinity>
-6.43094

> <CNNscore>
0.5726380944

> <CNNaffinity>
5.3325095177

> <CNN_VS>
3.0535981655

> <CNNaffinity_variance>
0.0734115764

$$$$
/media/chris/experiments/cd1a-new-docking/inputs/ligands/6nux_ligand.pdb


 17 16  0  0  0  0  0  0  0  0999 V2000
  -34.8595   58.3476   63.2490 C   0  0  0  0  0  0  0  0  0  0  0  0
  -33.4483   58.7280   62.9019 C   0  0  0  0  0  0  0  0  0  0  0  0
  -35.5201   59.0545   64.1768 C   0  0  0  0  0  0  0  0  0  0  0  0
  -35.5393   57.1833   62.5598 C   0  0  0  0  0  0  0  0  0  0  0  0
  -36.7167   57.6661   61.7191 C   0  0  0  0  0  0  0  0  0  0  0  0
  -39.2169   58.3126   60.4777 C   0  0  0  0  0  0  0  0  0  0  0  0
  -39.1629   57.2935   61.5746 C   0  0  0  0  0  0  0  0  0  0  0  0
  -40.4241   56.6167   62.0203 C   0  0  0  0  0  0  0  0  0  0  0  0
  -37.9946   56.9899   62.1594 C   0  0  0  0  0  0  0  0  0  0  0  0
  -34.8490   60.2214   64.8641 C   0  0  0  0  0  0  0  0  0  0  0  0
  -35.7261   61.4638   64.7671 C   0  0  0  0  0  0  0  0  0  0  0  0
  -35.2635   62.3373   63.6210 C   0  0  0  0  0  0  0  0  0  0  0  0
  -36.2626   63.1484   62.8558 C   0  0  0  0  0  0  0  0  0  0  0  0
  -33.9644   62.3977   63.2935 C   0  0  0  0  0  0  0  0  0  0  0  0
  -33.2552   64.6044   62.6163 O   0  0  0  0  0  0  0  0  0  0  0  0
  -33.4830   63.2681   62.1552 C   0  0  0  0  0  0  0  0  0  0  0  0
  -32.9469   65.1530   61.8782 H   0  0  0  0  0  0  0  0  0  0  0  0
  6  7  1  0  0  0
 15 16  1  0  0  0
 15 17  1  0  0  0
  7  8  1  0  0  0
  7  9  2  0  0  0
  9  5  1  0  0  0
  5  4  1  0  0  0
  4  1  1  0  0  0
  1  2  1  0  0  0
  1  3  2  0  0  0
  3 10  1  0  0  0
 10 11  1  0  0  0
 11 12  1  0  0  0
 12 13  1  0  0  0
 12 14  2  0  0  0
 14 16  1  0  0  0
M  END
> <minimizedAffinity>
-6.84122

> <CNNscore>
0.5589486361

> <CNNaffinity>
5.2753887177

> <CNN_VS>
2.9486713409

> <CNNaffinity_variance>
0.0649342760

$$$$
/media/chris/experiments/cd1a-new-docking/inputs/ligands/6nux_ligand.pdb


 17 16  0  0  0  0  0  0  0  0999 V2000
  -49.5914   58.6550   62.6578 C   0  0  0  0  0  0  0  0  0  0  0  0
  -49.7817   57.5861   61.6194 C   0  0  0  0  0  0  0  0  0  0  0  0
  -49.3237   59.9088   62.2669 C   0  0  0  0  0  0  0  0  0  0  0  0
  -49.7046   58.3306   64.1324 C   0  0  0  0  0  0  0  0  0  0  0  0
  -48.3630   58.5226   64.8321 C   0  0  0  0  0  0  0  0  0  0  0  0
  -46.4367   58.9097   66.9176 C   0  0  0  0  0  0  0  0  0  0  0  0
  -47.2736   57.6674   66.8876 C   0  0  0  0  0  0  0  0  0  0  0  0
  -47.0953   56.6277   67.9528 C   0  0  0  0  0  0  0  0  0  0  0  0
  -48.1749   57.4818   65.9118 C   0  0  0  0  0  0  0  0  0  0  0  0
  -49.2152   60.2401   60.7962 C   0  0  0  0  0  0  0  0  0  0  0  0
  -47.7832   60.6289   60.4492 C   0  0  0  0  0  0  0  0  0  0  0  0
  -46.9288   59.3879   60.3064 C   0  0  0  0  0  0  0  0  0  0  0  0
  -45.9547   59.0291   61.3853 C   0  0  0  0  0  0  0  0  0  0  0  0
  -47.0457   58.6025   59.2256 C   0  0  0  0  0  0  0  0  0  0  0  0
  -46.9964   56.1899   59.3162 O   0  0  0  0  0  0  0  0  0  0  0  0
  -46.2044   57.3566   59.0676 C   0  0  0  0  0  0  0  0  0  0  0  0
  -46.4467   55.3976   59.2120 H   0  0  0  0  0  0  0  0  0  0  0  0
  6  7  1  0  0  0
 15 16  1  0  0  0
 15 17  1  0  0  0
  7  8  1  0  0  0
  7  9  2  0  0  0
  9  5  1  0  0  0
  5  4  1  0  0  0
  4  1  1  0  0  0
  1  2  1  0  0  0
  1  3  2  0  0  0
  3 10  1  0  0  0
 10 11  1  0  0  0
 11 12  1  0  0  0
 12 13  1  0  0  0
 12 14  2  0  0  0
 14 16  1  0  0  0
M  END
> <minimizedAffinity>
-6.49771

> <CNNscore>
0.5255000591

> <CNNaffinity>
5.7311639786

> <CNN_VS>
3.0117270947

> <CNNaffinity_variance>
0.0886733308

$$$$
/media/chris/experiments/cd1a-new-docking/inputs/ligands/6nux_ligand.pdb


 17 16  0  0  0  0  0  0  0  0999 V2000
  -37.7709   57.2828   62.7968 C   0  0  0  0  0  0  0  0  0  0  0  0
  -39.0089   56.8045   62.0929 C   0  0  0  0  0  0  0  0  0  0  0  0
  -37.8460   57.6384   64.0870 C   0  0  0  0  0  0  0  0  0  0  0  0
  -36.4465   57.3606   62.0669 C   0  0  0  0  0  0  0  0  0  0  0  0
  -35.2831   57.2107   63.0417 C   0  0  0  0  0  0  0  0  0  0  0  0
  -32.7059   56.5454   61.9809 C   0  0  0  0  0  0  0  0  0  0  0  0
  -33.0428   57.9697   62.3010 C   0  0  0  0  0  0  0  0  0  0  0  0
  -32.0234   59.0435   62.0657 C   0  0  0  0  0  0  0  0  0  0  0  0
  -34.2475   58.2846   62.7996 C   0  0  0  0  0  0  0  0  0  0  0  0
  -39.1637   57.5575   64.8227 C   0  0  0  0  0  0  0  0  0  0  0  0
  -39.6505   58.9555   65.1844 C   0  0  0  0  0  0  0  0  0  0  0  0
  -41.1092   58.9096   65.5848 C   0  0  0  0  0  0  0  0  0  0  0  0
  -41.6642   59.9656   66.4897 C   0  0  0  0  0  0  0  0  0  0  0  0
  -41.9099   57.9363   65.1265 C   0  0  0  0  0  0  0  0  0  0  0  0
  -43.6700   56.6172   66.1232 O   0  0  0  0  0  0  0  0  0  0  0  0
  -43.3705   57.8767   65.5115 C   0  0  0  0  0  0  0  0  0  0  0  0
  -44.6088   56.5906   66.3658 H   0  0  0  0  0  0  0  0  0  0  0  0
  6  7  1  0  0  0
 15 16  1  0  0  0
 15 17  1  0  0  0
  7  8  1  0  0  0
  7  9  2  0  0  0
  9  5  1  0  0  0
  5  4  1  0  0  0
  4  1  1  0  0  0
  1  2  1  0  0  0
  1  3  2  0  0  0
  3 10  1  0  0  0
 10 11  1  0  0  0
 11 12  1  0  0  0
 12 13  1  0  0  0
 12 14  2  0  0  0
 14 16  1  0  0  0
M  END
> <minimizedAffinity>
-6.51087

> <CNNscore>
0.5092935562

> <CNNaffinity>
5.4608879089

> <CNN_VS>
2.7811949253

> <CNNaffinity_variance>
0.0618140511

$$$$
