/media/chris/experiments/cd1a-new-docking/inputs/ligands/6nux_ligand.pdb


 17 16  0  0  0  0  0  0  0  0999 V2000
  -38.9030   57.7636   61.4149 C   0  0  0  0  0  0  0  0  0  0  0  0
  -37.9739   58.5312   60.5181 C   0  0  0  0  0  0  0  0  0  0  0  0
  -38.3901   56.9667   62.3629 C   0  0  0  0  0  0  0  0  0  0  0  0
  -40.4043   57.8864   61.2613 C   0  0  0  0  0  0  0  0  0  0  0  0
  -41.0908   56.5649   61.5905 C   0  0  0  0  0  0  0  0  0  0  0  0
  -41.4108   54.4888   63.5391 C   0  0  0  0  0  0  0  0  0  0  0  0
  -42.1876   55.7638   63.6639 C   0  0  0  0  0  0  0  0  0  0  0  0
  -43.1345   55.9457   64.8118 C   0  0  0  0  0  0  0  0  0  0  0  0
  -42.0419   56.7370   62.7524 C   0  0  0  0  0  0  0  0  0  0  0  0
  -36.8924   56.8444   62.5250 C   0  0  0  0  0  0  0  0  0  0  0  0
  -36.4656   57.3797   63.8864 C   0  0  0  0  0  0  0  0  0  0  0  0
  -35.0589   57.9326   63.8088 C   0  0  0  0  0  0  0  0  0  0  0  0
  -34.2894   58.1834   65.0683 C   0  0  0  0  0  0  0  0  0  0  0  0
  -34.4938   58.1892   62.6198 C   0  0  0  0  0  0  0  0  0  0  0  0
  -33.1147   60.1687   62.5154 O   0  0  0  0  0  0  0  0  0  0  0  0
  -33.0883   58.7370   62.5222 C   0  0  0  0  0  0  0  0  0  0  0  0
  -32.2082   60.5085   62.4526 H   0  0  0  0  0  0  0  0  0  0  0  0
  6  7  1  0  0  0
 15 16  1  0  0  0
 15 17  1  0  0  0
  7  8  1  0  0  0
  7  9  2  0  0  0
  9  5  1  0  0  0
  5  4  1  0  0  0
  4  1  1  0  0  0
  1  2  1  0  0  0
  1  3  2  0  0  0
  3 10  1  0  0  0
 10 11  1  0  0  0
 11 12  1  0  0  0
 12 13  1  0  0  0
 12 14  2  0  0  0
 14 16  1  0  0  0
M  END
> <minimizedAffinity>
-6.86281

> <CNNscore>
0.8115039468

> <CNNaffinity>
5.9205312729

> <CNN_VS>
4.8045344353

> <CNNaffinity_variance>
0.0413857102

$$$$
/media/chris/experiments/cd1a-new-docking/inputs/ligands/6nux_ligand.pdb


 17 16  0  0  0  0  0  0  0  0999 V2000
  -49.4290   58.6025   62.6356 C   0  0  0  0  0  0  0  0  0  0  0  0
  -49.3537   60.0558   62.2627 C   0  0  0  0  0  0  0  0  0  0  0  0
  -49.6229   58.2636   63.9179 C   0  0  0  0  0  0  0  0  0  0  0  0
  -49.2944   57.5246   61.5807 C   0  0  0  0  0  0  0  0  0  0  0  0
  -49.3636   58.1269   60.1813 C   0  0  0  0  0  0  0  0  0  0  0  0
  -46.9490   59.5185   59.5159 C   0  0  0  0  0  0  0  0  0  0  0  0
  -47.2000   58.1453   58.9719 C   0  0  0  0  0  0  0  0  0  0  0  0
  -46.1826   57.5054   58.0760 C   0  0  0  0  0  0  0  0  0  0  0  0
  -48.3302   57.4917   59.2795 C   0  0  0  0  0  0  0  0  0  0  0  0
  -49.7639   59.3349   64.9746 C   0  0  0  0  0  0  0  0  0  0  0  0
  -49.5929   58.7299   66.3627 C   0  0  0  0  0  0  0  0  0  0  0  0
  -48.1397   58.3810   66.6014 C   0  0  0  0  0  0  0  0  0  0  0  0
  -47.0936   59.4469   66.4965 C   0  0  0  0  0  0  0  0  0  0  0  0
  -47.7844   57.1267   66.9163 C   0  0  0  0  0  0  0  0  0  0  0  0
  -45.7743   56.1583   65.9928 O   0  0  0  0  0  0  0  0  0  0  0  0
  -46.3387   56.7604   67.1630 C   0  0  0  0  0  0  0  0  0  0  0  0
  -44.8475   55.9278   66.1628 H   0  0  0  0  0  0  0  0  0  0  0  0
  6  7  1  0  0  0
 15 16  1  0  0  0
 15 17  1  0  0  0
  7  8  1  0  0  0
  7  9  2  0  0  0
  9  5  1  0  0  0
  5  4  1  0  0  0
  4  1  1  0  0  0
  1  2  1  0  0  0
  1  3  2  0  0  0
  3 10  1  0  0  0
 10 11  1  0  0  0
 11 12  1  0  0  0
 12 13  1  0  0  0
 12 14  2  0  0  0
 14 16  1  0  0  0
M  END
> <minimizedAffinity>
-7.07300

> <CNNscore>
0.7339144945

> <CNNaffinity>
5.9915170670

> <CNN_VS>
4.3972611427

> <CNNaffinity_variance>
0.2556022406

$$$$
/media/chris/experiments/cd1a-new-docking/inputs/ligands/6nux_ligand.pdb


 17 16  0  0  0  0  0  0  0  0999 V2000
  -38.4226   57.5221   61.4316 C   0  0  0  0  0  0  0  0  0  0  0  0
  -39.5234   58.1750   60.6448 C   0  0  0  0  0  0  0  0  0  0  0  0
  -38.7323   56.5899   62.3436 C   0  0  0  0  0  0  0  0  0  0  0  0
  -36.9753   57.9021   61.2002 C   0  0  0  0  0  0  0  0  0  0  0  0
  -36.0741   57.2612   62.2505 C   0  0  0  0  0  0  0  0  0  0  0  0
  -33.3676   56.4809   61.7257 C   0  0  0  0  0  0  0  0  0  0  0  0
  -33.6595   57.8131   62.3459 C   0  0  0  0  0  0  0  0  0  0  0  0
  -32.5281   58.7334   62.6925 C   0  0  0  0  0  0  0  0  0  0  0  0
  -34.9252   58.1809   62.5950 C   0  0  0  0  0  0  0  0  0  0  0  0
  -40.1747   56.2021   62.5751 C   0  0  0  0  0  0  0  0  0  0  0  0
  -40.6464   56.7167   63.9297 C   0  0  0  0  0  0  0  0  0  0  0  0
  -42.1557   56.8267   63.9461 C   0  0  0  0  0  0  0  0  0  0  0  0
  -42.8751   57.3489   62.7414 C   0  0  0  0  0  0  0  0  0  0  0  0
  -42.8532   56.4497   65.0278 C   0  0  0  0  0  0  0  0  0  0  0  0
  -44.8312   56.4906   66.4124 O   0  0  0  0  0  0  0  0  0  0  0  0
  -44.3613   56.5476   65.0610 C   0  0  0  0  0  0  0  0  0  0  0  0
  -45.7992   56.5543   66.4211 H   0  0  0  0  0  0  0  0  0  0  0  0
  6  7  1  0  0  0
 15 16  1  0  0  0
 15 17  1  0  0  0
  7  8  1  0  0  0
  7  9  2  0  0  0
  9  5  1  0  0  0
  5  4  1  0  0  0
  4  1  1  0  0  0
  1  2  1  0  0  0
  1  3  2  0  0  0
  3 10  1  0  0  0
 10 11  1  0  0  0
 11 12  1  0  0  0
 12 13  1  0  0  0
 12 14  2  0  0  0
 14 16  1  0  0  0
M  END
> <minimizedAffinity>
-7.03574

> <CNNscore>
0.7314279675

> <CNNaffinity>
5.7758765221

> <CNN_VS>
4.2246375084

> <CNNaffinity_variance>
0.0548468754

$$$$
/media/chris/experiments/cd1a-new-docking/inputs/ligands/6nux_ligand.pdb


 17 16  0  0  0  0  0  0  0  0999 V2000
  -35.1549   57.7053   62.9093 C   0  0  0  0  0  0  0  0  0  0  0  0
  -35.2734   58.0036   64.3769 C   0  0  0  0  0  0  0  0  0  0  0  0
  -33.9882   57.9260   62.2873 C   0  0  0  0  0  0  0  0  0  0  0  0
  -36.3333   57.1557   62.1334 C   0  0  0  0  0  0  0  0  0  0  0  0
  -37.6404   57.4318   62.8692 C   0  0  0  0  0  0  0  0  0  0  0  0
  -40.2219   57.0801   64.0616 C   0  0  0  0  0  0  0  0  0  0  0  0
  -40.0284   56.8256   62.5979 C   0  0  0  0  0  0  0  0  0  0  0  0
  -41.1919   56.3835   61.7622 C   0  0  0  0  0  0  0  0  0  0  0  0
  -38.8209   56.9871   62.0367 C   0  0  0  0  0  0  0  0  0  0  0  0
  -32.8066   58.4691   63.0575 C   0  0  0  0  0  0  0  0  0  0  0  0
  -31.9720   59.3806   62.1660 C   0  0  0  0  0  0  0  0  0  0  0  0
  -32.3703   60.8245   62.3823 C   0  0  0  0  0  0  0  0  0  0  0  0
  -33.5875   61.1453   63.1928 C   0  0  0  0  0  0  0  0  0  0  0  0
  -31.6347   61.8180   61.8622 C   0  0  0  0  0  0  0  0  0  0  0  0
  -31.0707   64.1240   61.4198 O   0  0  0  0  0  0  0  0  0  0  0  0
  -32.0139   63.2662   62.0716 C   0  0  0  0  0  0  0  0  0  0  0  0
  -31.3240   65.0497   61.5609 H   0  0  0  0  0  0  0  0  0  0  0  0
  6  7  1  0  0  0
 15 16  1  0  0  0
 15 17  1  0  0  0
  7  8  1  0  0  0
  7  9  2  0  0  0
  9  5  1  0  0  0
  5  4  1  0  0  0
  4  1  1  0  0  0
  1  2  1  0  0  0
  1  3  2  0  0  0
  3 10  1  0  0  0
 10 11  1  0  0  0
 11 12  1  0  0  0
 12 13  1  0  0  0
 12 14  2  0  0  0
 14 16  1  0  0  0
M  END
> <minimizedAffinity>
-6.74272

> <CNNscore>
0.7035464644

> <CNNaffinity>
5.4538984299

> <CNN_VS>
3.8370709419

> <CNNaffinity_variance>
0.0379505195

$$$$
/media/chris/experiments/cd1a-new-docking/inputs/ligands/6nux_ligand.pdb


 17 16  0  0  0  0  0  0  0  0999 V2000
  -34.5149   59.1432   63.4910 C   0  0  0  0  0  0  0  0  0  0  0  0
  -33.2065   58.9544   62.7773 C   0  0  0  0  0  0  0  0  0  0  0  0
  -34.9146   60.3820   63.8111 C   0  0  0  0  0  0  0  0  0  0  0  0
  -35.3826   57.9537   63.8442 C   0  0  0  0  0  0  0  0  0  0  0  0
  -35.6344   57.0853   62.6160 C   0  0  0  0  0  0  0  0  0  0  0  0
  -38.4596   56.6876   62.3519 C   0  0  0  0  0  0  0  0  0  0  0  0
  -37.7507   57.6619   61.4615 C   0  0  0  0  0  0  0  0  0  0  0  0
  -38.5270   58.4248   60.4307 C   0  0  0  0  0  0  0  0  0  0  0  0
  -36.4278   57.8491   61.5809 C   0  0  0  0  0  0  0  0  0  0  0  0
  -34.0556   61.5738   63.4561 C   0  0  0  0  0  0  0  0  0  0  0  0
  -34.8557   62.8619   63.6066 C   0  0  0  0  0  0  0  0  0  0  0  0
  -34.8333   63.3213   65.0484 C   0  0  0  0  0  0  0  0  0  0  0  0
  -33.5427   63.7593   65.6679 C   0  0  0  0  0  0  0  0  0  0  0  0
  -35.9629   63.3486   65.7709 C   0  0  0  0  0  0  0  0  0  0  0  0
  -36.5173   62.7949   68.0551 O   0  0  0  0  0  0  0  0  0  0  0  0
  -35.9611   63.8089   67.2108 C   0  0  0  0  0  0  0  0  0  0  0  0
  -36.5109   63.1011   68.9755 H   0  0  0  0  0  0  0  0  0  0  0  0
  6  7  1  0  0  0
 15 16  1  0  0  0
 15 17  1  0  0  0
  7  8  1  0  0  0
  7  9  2  0  0  0
  9  5  1  0  0  0
  5  4  1  0  0  0
  4  1  1  0  0  0
  1  2  1  0  0  0
  1  3  2  0  0  0
  3 10  1  0  0  0
 10 11  1  0  0  0
 11 12  1  0  0  0
 12 13  1  0  0  0
 12 14  2  0  0  0
 14 16  1  0  0  0
M  END
> <minimizedAffinity>
-6.95172

> <CNNscore>
0.6532683372

> <CNNaffinity>
5.4164891243

> <CNN_VS>
3.5384209156

> <CNNaffinity_variance>
0.0562050939

$$$$
/media/chris/experiments/cd1a-new-docking/inputs/ligands/6nux_ligand.pdb


 17 16  0  0  0  0  0  0  0  0999 V2000
  -38.3975   57.5602   61.4004 C   0  0  0  0  0  0  0  0  0  0  0  0
  -39.4360   58.2236   60.5413 C   0  0  0  0  0  0  0  0  0  0  0  0
  -38.7791   56.6435   62.3008 C   0  0  0  0  0  0  0  0  0  0  0  0
  -36.9320   57.9123   61.2544 C   0  0  0  0  0  0  0  0  0  0  0  0
  -36.1006   57.2201   62.3295 C   0  0  0  0  0  0  0  0  0  0  0  0
  -34.5290   58.8779   64.0589 C   0  0  0  0  0  0  0  0  0  0  0  0
  -33.8924   58.1995   62.8846 C   0  0  0  0  0  0  0  0  0  0  0  0
  -32.4301   58.3952   62.6183 C   0  0  0  0  0  0  0  0  0  0  0  0
  -34.6254   57.4244   62.0715 C   0  0  0  0  0  0  0  0  0  0  0  0
  -40.2397   56.2835   62.4472 C   0  0  0  0  0  0  0  0  0  0  0  0
  -40.6808   56.4555   63.8957 C   0  0  0  0  0  0  0  0  0  0  0  0
  -40.8577   57.9246   64.2133 C   0  0  0  0  0  0  0  0  0  0  0  0
  -41.8292   58.7435   63.4214 C   0  0  0  0  0  0  0  0  0  0  0  0
  -40.1584   58.4948   65.2056 C   0  0  0  0  0  0  0  0  0  0  0  0
  -39.2178   60.4168   66.3247 O   0  0  0  0  0  0  0  0  0  0  0  0
  -40.3252   59.9594   65.5406 C   0  0  0  0  0  0  0  0  0  0  0  0
  -39.3357   61.3568   66.5334 H   0  0  0  0  0  0  0  0  0  0  0  0
  6  7  1  0  0  0
 15 16  1  0  0  0
 15 17  1  0  0  0
  7  8  1  0  0  0
  7  9  2  0  0  0
  9  5  1  0  0  0
  5  4  1  0  0  0
  4  1  1  0  0  0
  1  2  1  0  0  0
  1  3  2  0  0  0
  3 10  1  0  0  0
 10 11  1  0  0  0
 11 12  1  0  0  0
 12 13  1  0  0  0
 12 14  2  0  0  0
 14 16  1  0  0  0
M  END
> <minimizedAffinity>
-6.86799

> <CNNscore>
0.6140257716

> <CNNaffinity>
5.5881195068

> <CNN_VS>
3.4312493801

> <CNNaffinity_variance>
0.0159889869

$$$$
/media/chris/experiments/cd1a-new-docking/inputs/ligands/6nux_ligand.pdb


 17 16  0  0  0  0  0  0  0  0999 V2000
  -38.6911   57.8546   61.2415 C   0  0  0  0  0  0  0  0  0  0  0  0
  -37.9732   58.9626   60.5247 C   0  0  0  0  0  0  0  0  0  0  0  0
  -38.0009   57.0469   62.0588 C   0  0  0  0  0  0  0  0  0  0  0  0
  -40.1793   57.6478   61.0538 C   0  0  0  0  0  0  0  0  0  0  0  0
  -40.6546   56.4181   61.8206 C   0  0  0  0  0  0  0  0  0  0  0  0
  -41.6208   54.4668   63.6829 C   0  0  0  0  0  0  0  0  0  0  0  0
  -42.0058   55.9067   63.8347 C   0  0  0  0  0  0  0  0  0  0  0  0
  -42.9010   56.3197   64.9640 C   0  0  0  0  0  0  0  0  0  0  0  0
  -41.5571   56.8226   62.9635 C   0  0  0  0  0  0  0  0  0  0  0  0
  -36.5163   57.2518   62.2548 C   0  0  0  0  0  0  0  0  0  0  0  0
  -36.1670   57.1806   63.7363 C   0  0  0  0  0  0  0  0  0  0  0  0
  -36.9854   58.1902   64.5117 C   0  0  0  0  0  0  0  0  0  0  0  0
  -38.2046   57.7426   65.2565 C   0  0  0  0  0  0  0  0  0  0  0  0
  -36.6201   59.4803   64.5446 C   0  0  0  0  0  0  0  0  0  0  0  0
  -38.3779   61.1338   64.4582 O   0  0  0  0  0  0  0  0  0  0  0  0
  -37.4222   60.5023   65.3174 C   0  0  0  0  0  0  0  0  0  0  0  0
  -38.8861   61.7868   64.9646 H   0  0  0  0  0  0  0  0  0  0  0  0
  6  7  1  0  0  0
 15 16  1  0  0  0
 15 17  1  0  0  0
  7  8  1  0  0  0
  7  9  2  0  0  0
  9  5  1  0  0  0
  5  4  1  0  0  0
  4  1  1  0  0  0
  1  2  1  0  0  0
  1  3  2  0  0  0
  3 10  1  0  0  0
 10 11  1  0  0  0
 11 12  1  0  0  0
 12 13  1  0  0  0
 12 14  2  0  0  0
 14 16  1  0  0  0
M  END
> <minimizedAffinity>
-6.79324

> <CNNscore>
0.6111428738

> <CNNaffinity>
5.5382294655

> <CNN_VS>
3.3846495152

> <CNNaffinity_variance>
0.0388315283

$$$$
/media/chris/experiments/cd1a-new-docking/inputs/ligands/6nux_ligand.pdb


 17 16  0  0  0  0  0  0  0  0999 V2000
  -37.3759   57.8835   63.9564 C   0  0  0  0  0  0  0  0  0  0  0  0
  -38.5194   57.6521   64.9029 C   0  0  0  0  0  0  0  0  0  0  0  0
  -37.4576   57.4168   62.7026 C   0  0  0  0  0  0  0  0  0  0  0  0
  -36.1423   58.6396   64.4029 C   0  0  0  0  0  0  0  0  0  0  0  0
  -34.9235   57.7229   64.4196 C   0  0  0  0  0  0  0  0  0  0  0  0
  -33.7898   57.1413   61.8533 C   0  0  0  0  0  0  0  0  0  0  0  0
  -33.1717   58.1881   62.7290 C   0  0  0  0  0  0  0  0  0  0  0  0
  -31.9560   58.9269   62.2561 C   0  0  0  0  0  0  0  0  0  0  0  0
  -33.6985   58.4615   63.9319 C   0  0  0  0  0  0  0  0  0  0  0  0
  -38.6887   56.6663   62.2492 C   0  0  0  0  0  0  0  0  0  0  0  0
  -39.4874   57.5125   61.2652 C   0  0  0  0  0  0  0  0  0  0  0  0
  -40.6386   58.1889   61.9776 C   0  0  0  0  0  0  0  0  0  0  0  0
  -41.8726   57.4063   62.3034 C   0  0  0  0  0  0  0  0  0  0  0  0
  -40.5564   59.4809   62.3281 C   0  0  0  0  0  0  0  0  0  0  0  0
  -41.1873   60.9829   64.1106 O   0  0  0  0  0  0  0  0  0  0  0  0
  -41.6939   60.1722   63.0444 C   0  0  0  0  0  0  0  0  0  0  0  0
  -41.9255   61.4211   64.5624 H   0  0  0  0  0  0  0  0  0  0  0  0
  6  7  1  0  0  0
 15 16  1  0  0  0
 15 17  1  0  0  0
  7  8  1  0  0  0
  7  9  2  0  0  0
  9  5  1  0  0  0
  5  4  1  0  0  0
  4  1  1  0  0  0
  1  2  1  0  0  0
  1  3  2  0  0  0
  3 10  1  0  0  0
 10 11  1  0  0  0
 11 12  1  0  0  0
 12 13  1  0  0  0
 12 14  2  0  0  0
 14 16  1  0  0  0
M  END
> <minimizedAffinity>
-6.42721

> <CNNscore>
0.5913949609

> <CNNaffinity>
5.6132841110

> <CNN_VS>
3.3196680546

> <CNNaffinity_variance>
0.1223843247

$$$$
/media/chris/experiments/cd1a-new-docking/inputs/ligands/6nux_ligand.pdb


 17 16  0  0  0  0  0  0  0  0999 V2000
  -49.6763   59.2382   62.1588 C   0  0  0  0  0  0  0  0  0  0  0  0
  -49.5701   58.1561   63.1955 C   0  0  0  0  0  0  0  0  0  0  0  0
  -49.4445   60.5102   62.5122 C   0  0  0  0  0  0  0  0  0  0  0  0
  -50.0351   58.9049   60.7260 C   0  0  0  0  0  0  0  0  0  0  0  0
  -49.2979   57.6529   60.2619 C   0  0  0  0  0  0  0  0  0  0  0  0
  -47.7195   55.6368   58.9761 C   0  0  0  0  0  0  0  0  0  0  0  0
  -47.3346   57.0802   58.8615 C   0  0  0  0  0  0  0  0  0  0  0  0
  -46.1183   57.4627   58.0732 C   0  0  0  0  0  0  0  0  0  0  0  0
  -48.0699   58.0265   59.4639 C   0  0  0  0  0  0  0  0  0  0  0  0
  -49.0803   60.8486   63.9395 C   0  0  0  0  0  0  0  0  0  0  0  0
  -47.5995   61.1951   64.0361 C   0  0  0  0  0  0  0  0  0  0  0  0
  -46.9183   60.2871   65.0370 C   0  0  0  0  0  0  0  0  0  0  0  0
  -47.6077   59.9495   66.3224 C   0  0  0  0  0  0  0  0  0  0  0  0
  -45.7067   59.7747   64.7757 C   0  0  0  0  0  0  0  0  0  0  0  0
  -43.9625   59.5665   66.4328 O   0  0  0  0  0  0  0  0  0  0  0  0
  -45.0127   58.8621   65.7609 C   0  0  0  0  0  0  0  0  0  0  0  0
  -43.5250   58.9715   67.0617 H   0  0  0  0  0  0  0  0  0  0  0  0
  6  7  1  0  0  0
 15 16  1  0  0  0
 15 17  1  0  0  0
  7  8  1  0  0  0
  7  9  2  0  0  0
  9  5  1  0  0  0
  5  4  1  0  0  0
  4  1  1  0  0  0
  1  2  1  0  0  0
  1  3  2  0  0  0
  3 10  1  0  0  0
 10 11  1  0  0  0
 11 12  1  0  0  0
 12 13  1  0  0  0
 12 14  2  0  0  0
 14 16  1  0  0  0
M  END
> <minimizedAffinity>
-6.41810

> <CNNscore>
0.5790617466

> <CNNaffinity>
5.5916357040

> <CNN_VS>
3.2379024029

> <CNNaffinity_variance>
0.1260472089

$$$$
