/media/chris/experiments/cd1a-new-docking/inputs/ligands/6nux_ligand.pdb


 17 16  0  0  0  0  0  0  0  0999 V2000
  -49.9505   58.4500   61.0465 C   0  0  0  0  0  0  0  0  0  0  0  0
  -49.9583   59.9407   60.8605 C   0  0  0  0  0  0  0  0  0  0  0  0
  -49.6304   57.9401   62.2440 C   0  0  0  0  0  0  0  0  0  0  0  0
  -50.3046   57.5251   59.9011 C   0  0  0  0  0  0  0  0  0  0  0  0
  -49.1786   56.5292   59.6432 C   0  0  0  0  0  0  0  0  0  0  0  0
  -46.4887   57.4381   60.0278 C   0  0  0  0  0  0  0  0  0  0  0  0
  -47.0787   57.3954   58.6513 C   0  0  0  0  0  0  0  0  0  0  0  0
  -46.2549   57.8331   57.4778 C   0  0  0  0  0  0  0  0  0  0  0  0
  -48.3383   56.9725   58.4678 C   0  0  0  0  0  0  0  0  0  0  0  0
  -49.2817   58.8582   63.3929 C   0  0  0  0  0  0  0  0  0  0  0  0
  -49.6750   58.2155   64.7174 C   0  0  0  0  0  0  0  0  0  0  0  0
  -48.4644   58.1006   65.6182 C   0  0  0  0  0  0  0  0  0  0  0  0
  -48.1923   56.8148   66.3353 C   0  0  0  0  0  0  0  0  0  0  0  0
  -47.6289   59.1387   65.7701 C   0  0  0  0  0  0  0  0  0  0  0  0
  -45.2729   59.6119   66.0087 O   0  0  0  0  0  0  0  0  0  0  0  0
  -46.4121   59.0411   66.6619 C   0  0  0  0  0  0  0  0  0  0  0  0
  -44.4992   59.5436   66.5896 H   0  0  0  0  0  0  0  0  0  0  0  0
  6  7  1  0  0  0
 15 16  1  0  0  0
 15 17  1  0  0  0
  7  8  1  0  0  0
  7  9  2  0  0  0
  9  5  1  0  0  0
  5  4  1  0  0  0
  4  1  1  0  0  0
  1  2  1  0  0  0
  1  3  2  0  0  0
  3 10  1  0  0  0
 10 11  1  0  0  0
 11 12  1  0  0  0
 12 13  1  0  0  0
 12 14  2  0  0  0
 14 16  1  0  0  0
M  END
> <minimizedAffinity>
-7.36025

> <CNNscore>
0.8084908724

> <CNNaffinity>
5.9034457207

> <CNN_VS>
4.7728819847

> <CNNaffinity_variance>
0.1635486633

$$$$
/media/chris/experiments/cd1a-new-docking/inputs/ligands/6nux_ligand.pdb


 17 16  0  0  0  0  0  0  0  0999 V2000
  -49.2338   58.0955   61.7944 C   0  0  0  0  0  0  0  0  0  0  0  0
  -50.0174   57.4212   60.7044 C   0  0  0  0  0  0  0  0  0  0  0  0
  -48.1360   58.7956   61.4761 C   0  0  0  0  0  0  0  0  0  0  0  0
  -49.6745   57.9960   63.2396 C   0  0  0  0  0  0  0  0  0  0  0  0
  -48.6585   58.6629   64.1612 C   0  0  0  0  0  0  0  0  0  0  0  0
  -49.9705   57.7049   66.5214 C   0  0  0  0  0  0  0  0  0  0  0  0
  -48.6133   57.1881   66.1528 C   0  0  0  0  0  0  0  0  0  0  0  0
  -47.9454   56.1697   67.0269 C   0  0  0  0  0  0  0  0  0  0  0  0
  -47.9953   57.6359   65.0498 C   0  0  0  0  0  0  0  0  0  0  0  0
  -47.6942   58.9034   60.0347 C   0  0  0  0  0  0  0  0  0  0  0  0
  -46.4684   58.0307   59.7940 C   0  0  0  0  0  0  0  0  0  0  0  0
  -46.6043   57.2968   58.4775 C   0  0  0  0  0  0  0  0  0  0  0  0
  -46.2277   57.9845   57.2021 C   0  0  0  0  0  0  0  0  0  0  0  0
  -47.0495   56.0321   58.4469 C   0  0  0  0  0  0  0  0  0  0  0  0
  -48.3519   54.4486   57.1711 O   0  0  0  0  0  0  0  0  0  0  0  0
  -47.1875   55.2814   57.1420 C   0  0  0  0  0  0  0  0  0  0  0  0
  -48.4300   53.9724   56.3296 H   0  0  0  0  0  0  0  0  0  0  0  0
  6  7  1  0  0  0
 15 16  1  0  0  0
 15 17  1  0  0  0
  7  8  1  0  0  0
  7  9  2  0  0  0
  9  5  1  0  0  0
  5  4  1  0  0  0
  4  1  1  0  0  0
  1  2  1  0  0  0
  1  3  2  0  0  0
  3 10  1  0  0  0
 10 11  1  0  0  0
 11 12  1  0  0  0
 12 13  1  0  0  0
 12 14  2  0  0  0
 14 16  1  0  0  0
M  END
> <minimizedAffinity>
-7.19424

> <CNNscore>
0.7482848763

> <CNNaffinity>
6.2894105911

> <CNN_VS>
4.7062706947

> <CNNaffinity_variance>
0.2223703414

$$$$
/media/chris/experiments/cd1a-new-docking/inputs/ligands/6nux_ligand.pdb


 17 16  0  0  0  0  0  0  0  0999 V2000
  -49.9841   58.4329   60.9702 C   0  0  0  0  0  0  0  0  0  0  0  0
  -49.9850   59.9322   60.8755 C   0  0  0  0  0  0  0  0  0  0  0  0
  -49.6894   57.8498   62.1406 C   0  0  0  0  0  0  0  0  0  0  0  0
  -50.3167   57.5808   59.7635 C   0  0  0  0  0  0  0  0  0  0  0  0
  -49.2305   56.5375   59.5231 C   0  0  0  0  0  0  0  0  0  0  0  0
  -46.5303   57.3700   59.9977 C   0  0  0  0  0  0  0  0  0  0  0  0
  -47.0747   57.3427   58.6022 C   0  0  0  0  0  0  0  0  0  0  0  0
  -46.2000   57.7557   57.4569 C   0  0  0  0  0  0  0  0  0  0  0  0
  -48.3390   56.9555   58.3765 C   0  0  0  0  0  0  0  0  0  0  0  0
  -49.3622   58.6949   63.3501 C   0  0  0  0  0  0  0  0  0  0  0  0
  -48.0878   58.1895   64.0154 C   0  0  0  0  0  0  0  0  0  0  0  0
  -48.4174   57.5399   65.3419 C   0  0  0  0  0  0  0  0  0  0  0  0
  -49.6681   57.9275   66.0678 C   0  0  0  0  0  0  0  0  0  0  0  0
  -47.6023   56.6126   65.8660 C   0  0  0  0  0  0  0  0  0  0  0  0
  -47.1136   56.5153   68.2288 O   0  0  0  0  0  0  0  0  0  0  0  0
  -47.9173   55.9495   67.1875 C   0  0  0  0  0  0  0  0  0  0  0  0
  -47.3241   56.0825   69.0711 H   0  0  0  0  0  0  0  0  0  0  0  0
  6  7  1  0  0  0
 15 16  1  0  0  0
 15 17  1  0  0  0
  7  8  1  0  0  0
  7  9  2  0  0  0
  9  5  1  0  0  0
  5  4  1  0  0  0
  4  1  1  0  0  0
  1  2  1  0  0  0
  1  3  2  0  0  0
  3 10  1  0  0  0
 10 11  1  0  0  0
 11 12  1  0  0  0
 12 13  1  0  0  0
 12 14  2  0  0  0
 14 16  1  0  0  0
M  END
> <minimizedAffinity>
-7.85904

> <CNNscore>
0.7247524261

> <CNNaffinity>
5.9867372513

> <CNN_VS>
4.3389024734

> <CNNaffinity_variance>
0.0862058029

$$$$
/media/chris/experiments/cd1a-new-docking/inputs/ligands/6nux_ligand.pdb


 17 16  0  0  0  0  0  0  0  0999 V2000
  -47.1588   60.7308   61.8050 C   0  0  0  0  0  0  0  0  0  0  0  0
  -46.6681   62.1498   61.8565 C   0  0  0  0  0  0  0  0  0  0  0  0
  -47.0727   59.9668   62.9029 C   0  0  0  0  0  0  0  0  0  0  0  0
  -47.7511   60.1623   60.5327 C   0  0  0  0  0  0  0  0  0  0  0  0
  -46.7115   59.3477   59.7700 C   0  0  0  0  0  0  0  0  0  0  0  0
  -46.1997   57.6326   57.5325 C   0  0  0  0  0  0  0  0  0  0  0  0
  -46.7979   57.0737   58.7874 C   0  0  0  0  0  0  0  0  0  0  0  0
  -47.1291   55.6137   58.8644 C   0  0  0  0  0  0  0  0  0  0  0  0
  -47.0407   57.8741   59.8360 C   0  0  0  0  0  0  0  0  0  0  0  0
  -46.4877   60.5303   64.1776 C   0  0  0  0  0  0  0  0  0  0  0  0
  -47.3559   60.1455   65.3693 C   0  0  0  0  0  0  0  0  0  0  0  0
  -46.7652   58.9442   66.0754 C   0  0  0  0  0  0  0  0  0  0  0  0
  -45.3507   58.9916   66.5634 C   0  0  0  0  0  0  0  0  0  0  0  0
  -47.5033   57.8425   66.2757 C   0  0  0  0  0  0  0  0  0  0  0  0
  -47.2726   55.4387   66.2731 O   0  0  0  0  0  0  0  0  0  0  0  0
  -46.9321   56.6347   66.9831 C   0  0  0  0  0  0  0  0  0  0  0  0
  -46.9012   54.6712   66.7357 H   0  0  0  0  0  0  0  0  0  0  0  0
  6  7  1  0  0  0
 15 16  1  0  0  0
 15 17  1  0  0  0
  7  8  1  0  0  0
  7  9  2  0  0  0
  9  5  1  0  0  0
  5  4  1  0  0  0
  4  1  1  0  0  0
  1  2  1  0  0  0
  1  3  2  0  0  0
  3 10  1  0  0  0
 10 11  1  0  0  0
 11 12  1  0  0  0
 12 13  1  0  0  0
 12 14  2  0  0  0
 14 16  1  0  0  0
M  END
> <minimizedAffinity>
-6.62022

> <CNNscore>
0.6360614300

> <CNNaffinity>
6.0376310349

> <CNN_VS>
3.8403041363

> <CNNaffinity_variance>
0.8058837652

$$$$
/media/chris/experiments/cd1a-new-docking/inputs/ligands/6nux_ligand.pdb


 17 16  0  0  0  0  0  0  0  0999 V2000
  -37.2893   57.9202   63.9620 C   0  0  0  0  0  0  0  0  0  0  0  0
  -38.4561   57.6128   64.8569 C   0  0  0  0  0  0  0  0  0  0  0  0
  -37.3253   57.5303   62.6801 C   0  0  0  0  0  0  0  0  0  0  0  0
  -36.0832   58.6669   64.4916 C   0  0  0  0  0  0  0  0  0  0  0  0
  -34.8370   57.7895   64.4347 C   0  0  0  0  0  0  0  0  0  0  0  0
  -33.6928   57.0377   61.9177 C   0  0  0  0  0  0  0  0  0  0  0  0
  -33.1411   58.2063   62.6757 C   0  0  0  0  0  0  0  0  0  0  0  0
  -31.9862   58.9776   62.1112 C   0  0  0  0  0  0  0  0  0  0  0  0
  -33.6729   58.5598   63.8553 C   0  0  0  0  0  0  0  0  0  0  0  0
  -38.5289   56.7896   62.1440 C   0  0  0  0  0  0  0  0  0  0  0  0
  -39.2680   57.6529   61.1289 C   0  0  0  0  0  0  0  0  0  0  0  0
  -40.3483   58.4566   61.8199 C   0  0  0  0  0  0  0  0  0  0  0  0
  -41.5885   57.7716   62.3035 C   0  0  0  0  0  0  0  0  0  0  0  0
  -40.1973   59.7756   62.0110 C   0  0  0  0  0  0  0  0  0  0  0  0
  -40.9029   60.8207   64.0703 O   0  0  0  0  0  0  0  0  0  0  0  0
  -41.2632   60.5940   62.7032 C   0  0  0  0  0  0  0  0  0  0  0  0
  -41.5935   61.3462   64.5038 H   0  0  0  0  0  0  0  0  0  0  0  0
  6  7  1  0  0  0
 15 16  1  0  0  0
 15 17  1  0  0  0
  7  8  1  0  0  0
  7  9  2  0  0  0
  9  5  1  0  0  0
  5  4  1  0  0  0
  4  1  1  0  0  0
  1  2  1  0  0  0
  1  3  2  0  0  0
  3 10  1  0  0  0
 10 11  1  0  0  0
 11 12  1  0  0  0
 12 13  1  0  0  0
 12 14  2  0  0  0
 14 16  1  0  0  0
M  END
> <minimizedAffinity>
-6.42245

> <CNNscore>
0.5854653120

> <CNNaffinity>
5.5526666641

> <CNN_VS>
3.2508938313

> <CNNaffinity_variance>
0.1560234278

$$$$
/media/chris/experiments/cd1a-new-docking/inputs/ligands/6nux_ligand.pdb


 17 16  0  0  0  0  0  0  0  0999 V2000
  -49.1282   59.8527   62.2333 C   0  0  0  0  0  0  0  0  0  0  0  0
  -49.4613   58.3945   62.3732 C   0  0  0  0  0  0  0  0  0  0  0  0
  -49.2422   60.6567   63.2997 C   0  0  0  0  0  0  0  0  0  0  0  0
  -48.6624   60.4166   60.9075 C   0  0  0  0  0  0  0  0  0  0  0  0
  -47.2032   60.0555   60.6498 C   0  0  0  0  0  0  0  0  0  0  0  0
  -46.2454   57.4120   60.0986 C   0  0  0  0  0  0  0  0  0  0  0  0
  -46.5712   58.3442   58.9718 C   0  0  0  0  0  0  0  0  0  0  0  0
  -46.3908   57.8870   57.5556 C   0  0  0  0  0  0  0  0  0  0  0  0
  -47.0178   59.5832   59.2262 C   0  0  0  0  0  0  0  0  0  0  0  0
  -49.7011   60.0987   64.6272 C   0  0  0  0  0  0  0  0  0  0  0  0
  -48.4979   59.7310   65.4869 C   0  0  0  0  0  0  0  0  0  0  0  0
  -48.7087   58.3732   66.1212 C   0  0  0  0  0  0  0  0  0  0  0  0
  -50.0917   57.8095   66.2259 C   0  0  0  0  0  0  0  0  0  0  0  0
  -47.6644   57.6677   66.5802 C   0  0  0  0  0  0  0  0  0  0  0  0
  -47.5348   55.2761   66.2727 O   0  0  0  0  0  0  0  0  0  0  0  0
  -47.8549   56.3078   67.2126 C   0  0  0  0  0  0  0  0  0  0  0  0
  -47.6607   54.4090   66.6890 H   0  0  0  0  0  0  0  0  0  0  0  0
  6  7  1  0  0  0
 15 16  1  0  0  0
 15 17  1  0  0  0
  7  8  1  0  0  0
  7  9  2  0  0  0
  9  5  1  0  0  0
  5  4  1  0  0  0
  4  1  1  0  0  0
  1  2  1  0  0  0
  1  3  2  0  0  0
  3 10  1  0  0  0
 10 11  1  0  0  0
 11 12  1  0  0  0
 12 13  1  0  0  0
 12 14  2  0  0  0
 14 16  1  0  0  0
M  END
> <minimizedAffinity>
-7.24896

> <CNNscore>
0.5820250511

> <CNNaffinity>
5.7844228745

> <CNN_VS>
3.3666789532

> <CNNaffinity_variance>
0.1593298465

$$$$
/media/chris/experiments/cd1a-new-docking/inputs/ligands/6nux_ligand.pdb


 17 16  0  0  0  0  0  0  0  0999 V2000
  -38.3493   57.5476   61.4020 C   0  0  0  0  0  0  0  0  0  0  0  0
  -39.3997   58.2060   60.5533 C   0  0  0  0  0  0  0  0  0  0  0  0
  -38.7201   56.6478   62.3236 C   0  0  0  0  0  0  0  0  0  0  0  0
  -36.8845   57.8860   61.2218 C   0  0  0  0  0  0  0  0  0  0  0  0
  -36.0379   57.2083   62.2943 C   0  0  0  0  0  0  0  0  0  0  0  0
  -34.5251   58.8689   64.0730 C   0  0  0  0  0  0  0  0  0  0  0  0
  -33.8630   58.2401   62.8851 C   0  0  0  0  0  0  0  0  0  0  0  0
  -32.4063   58.4869   62.6315 C   0  0  0  0  0  0  0  0  0  0  0  0
  -34.5686   57.4639   62.0492 C   0  0  0  0  0  0  0  0  0  0  0  0
  -40.1801   56.3015   62.5042 C   0  0  0  0  0  0  0  0  0  0  0  0
  -40.6186   56.6013   63.9325 C   0  0  0  0  0  0  0  0  0  0  0  0
  -40.3587   58.0556   64.2608 C   0  0  0  0  0  0  0  0  0  0  0  0
  -39.2359   58.4194   65.1818 C   0  0  0  0  0  0  0  0  0  0  0  0
  -41.1204   59.0204   63.7243 C   0  0  0  0  0  0  0  0  0  0  0  0
  -41.6790   60.8904   65.1463 O   0  0  0  0  0  0  0  0  0  0  0  0
  -40.8730   60.4786   64.0368 C   0  0  0  0  0  0  0  0  0  0  0  0
  -41.5121   61.8266   65.3374 H   0  0  0  0  0  0  0  0  0  0  0  0
  6  7  1  0  0  0
 15 16  1  0  0  0
 15 17  1  0  0  0
  7  8  1  0  0  0
  7  9  2  0  0  0
  9  5  1  0  0  0
  5  4  1  0  0  0
  4  1  1  0  0  0
  1  2  1  0  0  0
  1  3  2  0  0  0
  3 10  1  0  0  0
 10 11  1  0  0  0
 11 12  1  0  0  0
 12 13  1  0  0  0
 12 14  2  0  0  0
 14 16  1  0  0  0
M  END
> <minimizedAffinity>
-6.85616

> <CNNscore>
0.5612015128

> <CNNaffinity>
5.5444707870

> <CNN_VS>
3.1115653515

> <CNNaffinity_variance>
0.0260461010

$$$$
/media/chris/experiments/cd1a-new-docking/inputs/ligands/6nux_ligand.pdb


 17 16  0  0  0  0  0  0  0  0999 V2000
  -47.0715   61.1476   62.4818 C   0  0  0  0  0  0  0  0  0  0  0  0
  -46.4564   62.2907   61.7257 C   0  0  0  0  0  0  0  0  0  0  0  0
  -46.9506   59.9024   62.0007 C   0  0  0  0  0  0  0  0  0  0  0  0
  -47.8172   61.3885   63.7775 C   0  0  0  0  0  0  0  0  0  0  0  0
  -49.2492   60.8725   63.6804 C   0  0  0  0  0  0  0  0  0  0  0  0
  -49.5392   58.0276   63.5021 C   0  0  0  0  0  0  0  0  0  0  0  0
  -49.7344   58.7228   64.8149 C   0  0  0  0  0  0  0  0  0  0  0  0
  -50.0846   57.9222   66.0329 C   0  0  0  0  0  0  0  0  0  0  0  0
  -49.6015   60.0547   64.9016 C   0  0  0  0  0  0  0  0  0  0  0  0
  -46.2025   59.6547   60.7110 C   0  0  0  0  0  0  0  0  0  0  0  0
  -47.1845   59.3921   59.5759 C   0  0  0  0  0  0  0  0  0  0  0  0
  -46.9499   58.0146   58.9948 C   0  0  0  0  0  0  0  0  0  0  0  0
  -46.2531   57.8736   57.6772 C   0  0  0  0  0  0  0  0  0  0  0  0
  -47.3523   56.9198   59.6569 C   0  0  0  0  0  0  0  0  0  0  0  0
  -48.3066   55.0638   58.4420 O   0  0  0  0  0  0  0  0  0  0  0  0
  -47.1225   55.5355   59.0945 C   0  0  0  0  0  0  0  0  0  0  0  0
  -48.1474   54.1757   58.0857 H   0  0  0  0  0  0  0  0  0  0  0  0
  6  7  1  0  0  0
 15 16  1  0  0  0
 15 17  1  0  0  0
  7  8  1  0  0  0
  7  9  2  0  0  0
  9  5  1  0  0  0
  5  4  1  0  0  0
  4  1  1  0  0  0
  1  2  1  0  0  0
  1  3  2  0  0  0
  3 10  1  0  0  0
 10 11  1  0  0  0
 11 12  1  0  0  0
 12 13  1  0  0  0
 12 14  2  0  0  0
 14 16  1  0  0  0
M  END
> <minimizedAffinity>
-6.97304

> <CNNscore>
0.5497148633

> <CNNaffinity>
5.7339372635

> <CNN_VS>
3.1520304680

> <CNNaffinity_variance>
0.0615934320

$$$$
/media/chris/experiments/cd1a-new-docking/inputs/ligands/6nux_ligand.pdb


 17 16  0  0  0  0  0  0  0  0999 V2000
  -44.2119   58.4420   62.3299 C   0  0  0  0  0  0  0  0  0  0  0  0
  -43.6817   59.8112   62.6479 C   0  0  0  0  0  0  0  0  0  0  0  0
  -43.3615   57.4078   62.2665 C   0  0  0  0  0  0  0  0  0  0  0  0
  -45.6902   58.2214   62.0877 C   0  0  0  0  0  0  0  0  0  0  0  0
  -46.0262   58.3893   60.6095 C   0  0  0  0  0  0  0  0  0  0  0  0
  -46.4097   58.0951   57.7853 C   0  0  0  0  0  0  0  0  0  0  0  0
  -46.7128   56.9546   58.7085 C   0  0  0  0  0  0  0  0  0  0  0  0
  -47.2199   55.6606   58.1465 C   0  0  0  0  0  0  0  0  0  0  0  0
  -46.5364   57.0895   60.0312 C   0  0  0  0  0  0  0  0  0  0  0  0
  -41.8857   57.6207   62.5130 C   0  0  0  0  0  0  0  0  0  0  0  0
  -41.0650   56.7080   61.6099 C   0  0  0  0  0  0  0  0  0  0  0  0
  -39.6659   57.2615   61.4462 C   0  0  0  0  0  0  0  0  0  0  0  0
  -38.5582   56.7470   62.3121 C   0  0  0  0  0  0  0  0  0  0  0  0
  -39.4101   58.2015   60.5244 C   0  0  0  0  0  0  0  0  0  0  0  0
  -37.9348   60.0728   60.9153 O   0  0  0  0  0  0  0  0  0  0  0  0
  -38.0182   58.7628   60.3432 C   0  0  0  0  0  0  0  0  0  0  0  0
  -37.0383   60.4225   60.7931 H   0  0  0  0  0  0  0  0  0  0  0  0
  6  7  1  0  0  0
 15 16  1  0  0  0
 15 17  1  0  0  0
  7  8  1  0  0  0
  7  9  2  0  0  0
  9  5  1  0  0  0
  5  4  1  0  0  0
  4  1  1  0  0  0
  1  2  1  0  0  0
  1  3  2  0  0  0
  3 10  1  0  0  0
 10 11  1  0  0  0
 11 12  1  0  0  0
 12 13  1  0  0  0
 12 14  2  0  0  0
 14 16  1  0  0  0
M  END
> <minimizedAffinity>
-7.50593

> <CNNscore>
0.5259273648

> <CNNaffinity>
5.6029052734

> <CNN_VS>
2.9467213154

> <CNNaffinity_variance>
0.1717867106

$$$$
