/media/chris/experiments/cd1a-new-docking/inputs/ligands/6nux_ligand.pdb


 17 16  0  0  0  0  0  0  0  0999 V2000
  -50.0532   58.6236   60.9672 C   0  0  0  0  0  0  0  0  0  0  0  0
  -49.8651   60.1141   60.9656 C   0  0  0  0  0  0  0  0  0  0  0  0
  -49.6403   57.9116   62.0251 C   0  0  0  0  0  0  0  0  0  0  0  0
  -50.7064   57.9246   59.7936 C   0  0  0  0  0  0  0  0  0  0  0  0
  -49.7596   56.8974   59.1816 C   0  0  0  0  0  0  0  0  0  0  0  0
  -47.3060   55.4344   58.9598 C   0  0  0  0  0  0  0  0  0  0  0  0
  -47.3570   56.8808   58.5727 C   0  0  0  0  0  0  0  0  0  0  0  0
  -46.1171   57.5583   58.0717 C   0  0  0  0  0  0  0  0  0  0  0  0
  -48.5034   57.5693   58.6772 C   0  0  0  0  0  0  0  0  0  0  0  0
  -48.9928   58.6042   63.2021 C   0  0  0  0  0  0  0  0  0  0  0  0
  -49.7281   58.2510   64.4893 C   0  0  0  0  0  0  0  0  0  0  0  0
  -48.7420   58.1143   65.6293 C   0  0  0  0  0  0  0  0  0  0  0  0
  -48.7363   59.1277   66.7313 C   0  0  0  0  0  0  0  0  0  0  0  0
  -47.8813   57.0864   65.6641 C   0  0  0  0  0  0  0  0  0  0  0  0
  -45.6902   56.3139   66.3228 O   0  0  0  0  0  0  0  0  0  0  0  0
  -46.8925   56.9305   66.7970 C   0  0  0  0  0  0  0  0  0  0  0  0
  -45.0639   56.2191   67.0574 H   0  0  0  0  0  0  0  0  0  0  0  0
  6  7  1  0  0  0
 15 16  1  0  0  0
 15 17  1  0  0  0
  7  8  1  0  0  0
  7  9  2  0  0  0
  9  5  1  0  0  0
  5  4  1  0  0  0
  4  1  1  0  0  0
  1  2  1  0  0  0
  1  3  2  0  0  0
  3 10  1  0  0  0
 10 11  1  0  0  0
 11 12  1  0  0  0
 12 13  1  0  0  0
 12 14  2  0  0  0
 14 16  1  0  0  0
M  END
> <minimizedAffinity>
-7.35868

> <CNNscore>
0.7500663996

> <CNNaffinity>
6.0243740082

> <CNN_VS>
4.5186805725

> <CNNaffinity_variance>
0.1703245342

$$$$
/media/chris/experiments/cd1a-new-docking/inputs/ligands/6nux_ligand.pdb


 17 16  0  0  0  0  0  0  0  0999 V2000
  -38.5493   57.5206   61.3881 C   0  0  0  0  0  0  0  0  0  0  0  0
  -39.6014   58.1764   60.5396 C   0  0  0  0  0  0  0  0  0  0  0  0
  -38.9119   56.5814   62.2731 C   0  0  0  0  0  0  0  0  0  0  0  0
  -37.0915   57.9055   61.2486 C   0  0  0  0  0  0  0  0  0  0  0  0
  -36.2525   57.2473   62.3390 C   0  0  0  0  0  0  0  0  0  0  0  0
  -34.5655   58.3898   64.3535 C   0  0  0  0  0  0  0  0  0  0  0  0
  -33.9927   57.9996   63.0252 C   0  0  0  0  0  0  0  0  0  0  0  0
  -32.5335   58.2129   62.7556 C   0  0  0  0  0  0  0  0  0  0  0  0
  -34.7799   57.4664   62.0791 C   0  0  0  0  0  0  0  0  0  0  0  0
  -40.3647   56.1888   62.4129 C   0  0  0  0  0  0  0  0  0  0  0  0
  -40.8380   56.4256   63.8419 C   0  0  0  0  0  0  0  0  0  0  0  0
  -42.2963   56.8304   63.8451 C   0  0  0  0  0  0  0  0  0  0  0  0
  -42.9259   57.3475   62.5890 C   0  0  0  0  0  0  0  0  0  0  0  0
  -43.0304   56.7192   64.9620 C   0  0  0  0  0  0  0  0  0  0  0  0
  -45.2535   56.1455   65.7104 O   0  0  0  0  0  0  0  0  0  0  0  0
  -44.4895   57.1140   64.9832 C   0  0  0  0  0  0  0  0  0  0  0  0
  -46.1870   56.4089   65.7173 H   0  0  0  0  0  0  0  0  0  0  0  0
  6  7  1  0  0  0
 15 16  1  0  0  0
 15 17  1  0  0  0
  7  8  1  0  0  0
  7  9  2  0  0  0
  9  5  1  0  0  0
  5  4  1  0  0  0
  4  1  1  0  0  0
  1  2  1  0  0  0
  1  3  2  0  0  0
  3 10  1  0  0  0
 10 11  1  0  0  0
 11 12  1  0  0  0
 12 13  1  0  0  0
 12 14  2  0  0  0
 14 16  1  0  0  0
M  END
> <minimizedAffinity>
-7.01445

> <CNNscore>
0.7029737830

> <CNNaffinity>
5.8067913055

> <CNN_VS>
4.0820221901

> <CNNaffinity_variance>
0.0344826467

$$$$
/media/chris/experiments/cd1a-new-docking/inputs/ligands/6nux_ligand.pdb


 17 16  0  0  0  0  0  0  0  0999 V2000
  -37.6078   57.4848   64.0224 C   0  0  0  0  0  0  0  0  0  0  0  0
  -38.4582   57.9381   65.1749 C   0  0  0  0  0  0  0  0  0  0  0  0
  -38.1626   57.3550   62.8092 C   0  0  0  0  0  0  0  0  0  0  0  0
  -36.1374   57.1810   64.2179 C   0  0  0  0  0  0  0  0  0  0  0  0
  -35.4130   57.1326   62.8766 C   0  0  0  0  0  0  0  0  0  0  0  0
  -32.8171   56.4860   61.8505 C   0  0  0  0  0  0  0  0  0  0  0  0
  -33.1077   57.8707   62.3432 C   0  0  0  0  0  0  0  0  0  0  0  0
  -32.0324   58.9143   62.2988 C   0  0  0  0  0  0  0  0  0  0  0  0
  -34.3212   58.1764   62.8261 C   0  0  0  0  0  0  0  0  0  0  0  0
  -39.6285   57.6623   62.6065 C   0  0  0  0  0  0  0  0  0  0  0  0
  -40.3650   56.4177   62.1262 C   0  0  0  0  0  0  0  0  0  0  0  0
  -41.3028   55.9210   63.2053 C   0  0  0  0  0  0  0  0  0  0  0  0
  -41.5716   54.4541   63.3374 C   0  0  0  0  0  0  0  0  0  0  0  0
  -41.8858   56.7845   64.0498 C   0  0  0  0  0  0  0  0  0  0  0  0
  -44.1825   56.5283   64.7506 O   0  0  0  0  0  0  0  0  0  0  0  0
  -42.8215   56.3067   65.1367 C   0  0  0  0  0  0  0  0  0  0  0  0
  -44.7730   56.2182   65.4548 H   0  0  0  0  0  0  0  0  0  0  0  0
  6  7  1  0  0  0
 15 16  1  0  0  0
 15 17  1  0  0  0
  7  8  1  0  0  0
  7  9  2  0  0  0
  9  5  1  0  0  0
  5  4  1  0  0  0
  4  1  1  0  0  0
  1  2  1  0  0  0
  1  3  2  0  0  0
  3 10  1  0  0  0
 10 11  1  0  0  0
 11 12  1  0  0  0
 12 13  1  0  0  0
 12 14  2  0  0  0
 14 16  1  0  0  0
M  END
> <minimizedAffinity>
-6.66256

> <CNNscore>
0.6484163404

> <CNNaffinity>
5.6846446991

> <CNN_VS>
3.6860165596

> <CNNaffinity_variance>
0.0234244913

$$$$
/media/chris/experiments/cd1a-new-docking/inputs/ligands/6nux_ligand.pdb


 17 16  0  0  0  0  0  0  0  0999 V2000
  -38.4190   57.5459   61.4078 C   0  0  0  0  0  0  0  0  0  0  0  0
  -39.4781   58.1909   60.5598 C   0  0  0  0  0  0  0  0  0  0  0  0
  -38.7757   56.6277   62.3168 C   0  0  0  0  0  0  0  0  0  0  0  0
  -36.9608   57.9181   61.2410 C   0  0  0  0  0  0  0  0  0  0  0  0
  -36.1027   57.2253   62.2945 C   0  0  0  0  0  0  0  0  0  0  0  0
  -34.4774   58.4697   64.2993 C   0  0  0  0  0  0  0  0  0  0  0  0
  -33.8782   58.0734   62.9845 C   0  0  0  0  0  0  0  0  0  0  0  0
  -32.4253   58.3340   62.7233 C   0  0  0  0  0  0  0  0  0  0  0  0
  -34.6366   57.4925   62.0429 C   0  0  0  0  0  0  0  0  0  0  0  0
  -40.2289   56.2476   62.4840 C   0  0  0  0  0  0  0  0  0  0  0  0
  -40.6644   56.4580   63.9291 C   0  0  0  0  0  0  0  0  0  0  0  0
  -40.8091   57.9367   64.2174 C   0  0  0  0  0  0  0  0  0  0  0  0
  -41.8315   58.7409   63.4762 C   0  0  0  0  0  0  0  0  0  0  0  0
  -40.0353   58.5286   65.1392 C   0  0  0  0  0  0  0  0  0  0  0  0
  -39.1620   60.4080   66.3788 O   0  0  0  0  0  0  0  0  0  0  0  0
  -40.1687   60.0032   65.4443 C   0  0  0  0  0  0  0  0  0  0  0  0
  -39.2573   61.3549   66.5668 H   0  0  0  0  0  0  0  0  0  0  0  0
  6  7  1  0  0  0
 15 16  1  0  0  0
 15 17  1  0  0  0
  7  8  1  0  0  0
  7  9  2  0  0  0
  9  5  1  0  0  0
  5  4  1  0  0  0
  4  1  1  0  0  0
  1  2  1  0  0  0
  1  3  2  0  0  0
  3 10  1  0  0  0
 10 11  1  0  0  0
 11 12  1  0  0  0
 12 13  1  0  0  0
 12 14  2  0  0  0
 14 16  1  0  0  0
M  END
> <minimizedAffinity>
-6.85730

> <CNNscore>
0.6256695390

> <CNNaffinity>
5.5991520882

> <CNN_VS>
3.5032188892

> <CNNaffinity_variance>
0.0188402347

$$$$
/media/chris/experiments/cd1a-new-docking/inputs/ligands/6nux_ligand.pdb


 17 16  0  0  0  0  0  0  0  0999 V2000
  -38.6275   57.8064   61.2004 C   0  0  0  0  0  0  0  0  0  0  0  0
  -37.9216   58.9423   60.5162 C   0  0  0  0  0  0  0  0  0  0  0  0
  -37.9396   57.0138   62.0342 C   0  0  0  0  0  0  0  0  0  0  0  0
  -40.1014   57.5548   60.9617 C   0  0  0  0  0  0  0  0  0  0  0  0
  -40.6416   56.5289   61.9526 C   0  0  0  0  0  0  0  0  0  0  0  0
  -41.7913   55.0083   64.0916 C   0  0  0  0  0  0  0  0  0  0  0  0
  -41.8823   56.5037   64.0982 C   0  0  0  0  0  0  0  0  0  0  0  0
  -42.5802   57.1990   65.2281 C   0  0  0  0  0  0  0  0  0  0  0  0
  -41.3470   57.2187   63.0975 C   0  0  0  0  0  0  0  0  0  0  0  0
  -36.4695   57.2633   62.2812 C   0  0  0  0  0  0  0  0  0  0  0  0
  -36.1764   57.2406   63.7764 C   0  0  0  0  0  0  0  0  0  0  0  0
  -37.0853   58.2119   64.4983 C   0  0  0  0  0  0  0  0  0  0  0  0
  -38.2578   57.6955   65.2729 C   0  0  0  0  0  0  0  0  0  0  0  0
  -36.8414   59.5300   64.4572 C   0  0  0  0  0  0  0  0  0  0  0  0
  -37.4344   61.8514   64.7587 O   0  0  0  0  0  0  0  0  0  0  0  0
  -37.7351   60.5150   65.1758 C   0  0  0  0  0  0  0  0  0  0  0  0
  -38.0133   62.4740   65.2258 H   0  0  0  0  0  0  0  0  0  0  0  0
  6  7  1  0  0  0
 15 16  1  0  0  0
 15 17  1  0  0  0
  7  8  1  0  0  0
  7  9  2  0  0  0
  9  5  1  0  0  0
  5  4  1  0  0  0
  4  1  1  0  0  0
  1  2  1  0  0  0
  1  3  2  0  0  0
  3 10  1  0  0  0
 10 11  1  0  0  0
 11 12  1  0  0  0
 12 13  1  0  0  0
 12 14  2  0  0  0
 14 16  1  0  0  0
M  END
> <minimizedAffinity>
-6.71642

> <CNNscore>
0.5970505476

> <CNNaffinity>
5.5946745872

> <CNN_VS>
3.3403034210

> <CNNaffinity_variance>
0.0189478807

$$$$
/media/chris/experiments/cd1a-new-docking/inputs/ligands/6nux_ligand.pdb


 17 16  0  0  0  0  0  0  0  0999 V2000
  -49.6753   58.7702   64.4694 C   0  0  0  0  0  0  0  0  0  0  0  0
  -49.6761   60.2723   64.4939 C   0  0  0  0  0  0  0  0  0  0  0  0
  -49.6009   58.1335   63.2923 C   0  0  0  0  0  0  0  0  0  0  0  0
  -49.7516   57.9750   65.7557 C   0  0  0  0  0  0  0  0  0  0  0  0
  -48.5540   58.2784   66.6500 C   0  0  0  0  0  0  0  0  0  0  0  0
  -46.1497   59.1803   65.3791 C   0  0  0  0  0  0  0  0  0  0  0  0
  -46.2986   57.7424   65.7728 C   0  0  0  0  0  0  0  0  0  0  0  0
  -45.1844   56.7786   65.4956 C   0  0  0  0  0  0  0  0  0  0  0  0
  -47.4236   57.3163   66.3661 C   0  0  0  0  0  0  0  0  0  0  0  0
  -49.5186   58.9216   62.0053 C   0  0  0  0  0  0  0  0  0  0  0  0
  -48.2477   58.5586   61.2469 C   0  0  0  0  0  0  0  0  0  0  0  0
  -48.5900   57.7326   60.0258 C   0  0  0  0  0  0  0  0  0  0  0  0
  -50.0217   57.5622   59.6225 C   0  0  0  0  0  0  0  0  0  0  0  0
  -47.6194   57.1617   59.2972 C   0  0  0  0  0  0  0  0  0  0  0  0
  -48.1150   54.9623   58.4321 O   0  0  0  0  0  0  0  0  0  0  0  0
  -47.9416   56.3373   58.0717 C   0  0  0  0  0  0  0  0  0  0  0  0
  -48.3211   54.4436   57.6387 H   0  0  0  0  0  0  0  0  0  0  0  0
  6  7  1  0  0  0
 15 16  1  0  0  0
 15 17  1  0  0  0
  7  8  1  0  0  0
  7  9  2  0  0  0
  9  5  1  0  0  0
  5  4  1  0  0  0
  4  1  1  0  0  0
  1  2  1  0  0  0
  1  3  2  0  0  0
  3 10  1  0  0  0
 10 11  1  0  0  0
 11 12  1  0  0  0
 12 13  1  0  0  0
 12 14  2  0  0  0
 14 16  1  0  0  0
M  END
> <minimizedAffinity>
-6.27972

> <CNNscore>
0.5736553073

> <CNNaffinity>
6.1093597412

> <CNN_VS>
3.5046665668

> <CNNaffinity_variance>
0.2159653455

$$$$
/media/chris/experiments/cd1a-new-docking/inputs/ligands/6nux_ligand.pdb


 17 16  0  0  0  0  0  0  0  0999 V2000
  -37.6164   57.3173   63.6517 C   0  0  0  0  0  0  0  0  0  0  0  0
  -38.6266   57.7109   64.6917 C   0  0  0  0  0  0  0  0  0  0  0  0
  -38.0403   56.8391   62.4735 C   0  0  0  0  0  0  0  0  0  0  0  0
  -36.1331   57.4608   63.9200 C   0  0  0  0  0  0  0  0  0  0  0  0
  -35.3324   57.2884   62.6334 C   0  0  0  0  0  0  0  0  0  0  0  0
  -32.6595   56.4808   61.9907 C   0  0  0  0  0  0  0  0  0  0  0  0
  -32.9652   57.9222   62.2617 C   0  0  0  0  0  0  0  0  0  0  0  0
  -31.8648   58.9382   62.1972 C   0  0  0  0  0  0  0  0  0  0  0  0
  -34.2149   58.3036   62.5649 C   0  0  0  0  0  0  0  0  0  0  0  0
  -39.5196   56.6990   62.1975 C   0  0  0  0  0  0  0  0  0  0  0  0
  -39.9058   57.5189   60.9724 C   0  0  0  0  0  0  0  0  0  0  0  0
  -40.1095   58.9675   61.3607 C   0  0  0  0  0  0  0  0  0  0  0  0
  -39.2222   60.0237   60.7788 C   0  0  0  0  0  0  0  0  0  0  0  0
  -41.0854   59.3120   62.2136 C   0  0  0  0  0  0  0  0  0  0  0  0
  -42.3875   60.8499   63.5444 O   0  0  0  0  0  0  0  0  0  0  0  0
  -41.3072   60.7541   62.6094 C   0  0  0  0  0  0  0  0  0  0  0  0
  -42.5205   61.7786   63.7908 H   0  0  0  0  0  0  0  0  0  0  0  0
  6  7  1  0  0  0
 15 16  1  0  0  0
 15 17  1  0  0  0
  7  8  1  0  0  0
  7  9  2  0  0  0
  9  5  1  0  0  0
  5  4  1  0  0  0
  4  1  1  0  0  0
  1  2  1  0  0  0
  1  3  2  0  0  0
  3 10  1  0  0  0
 10 11  1  0  0  0
 11 12  1  0  0  0
 12 13  1  0  0  0
 12 14  2  0  0  0
 14 16  1  0  0  0
M  END
> <minimizedAffinity>
-6.64666

> <CNNscore>
0.5712957978

> <CNNaffinity>
5.4696612358

> <CNN_VS>
3.1247944832

> <CNNaffinity_variance>
0.0463042594

$$$$
/media/chris/experiments/cd1a-new-docking/inputs/ligands/6nux_ligand.pdb


 17 16  0  0  0  0  0  0  0  0999 V2000
  -37.9494   57.4403   62.3132 C   0  0  0  0  0  0  0  0  0  0  0  0
  -37.3075   57.9940   61.0729 C   0  0  0  0  0  0  0  0  0  0  0  0
  -37.4280   57.7398   63.5112 C   0  0  0  0  0  0  0  0  0  0  0  0
  -39.1759   56.5572   62.2218 C   0  0  0  0  0  0  0  0  0  0  0  0
  -40.2615   57.2255   61.3846 C   0  0  0  0  0  0  0  0  0  0  0  0
  -40.2702   60.0818   61.1589 C   0  0  0  0  0  0  0  0  0  0  0  0
  -41.1658   59.4028   62.1495 C   0  0  0  0  0  0  0  0  0  0  0  0
  -42.0638   60.2261   63.0231 C   0  0  0  0  0  0  0  0  0  0  0  0
  -41.1629   58.0660   62.2593 C   0  0  0  0  0  0  0  0  0  0  0  0
  -36.2073   58.6256   63.6093 C   0  0  0  0  0  0  0  0  0  0  0  0
  -35.0045   57.8135   64.0740 C   0  0  0  0  0  0  0  0  0  0  0  0
  -33.8861   57.9159   63.0595 C   0  0  0  0  0  0  0  0  0  0  0  0
  -33.8576   56.9825   61.8893 C   0  0  0  0  0  0  0  0  0  0  0  0
  -32.9270   58.8434   63.1962 C   0  0  0  0  0  0  0  0  0  0  0  0
  -31.5875   60.3389   61.8544 O   0  0  0  0  0  0  0  0  0  0  0  0
  -31.8047   58.9640   62.1907 C   0  0  0  0  0  0  0  0  0  0  0  0
  -30.8660   60.4040   61.2093 H   0  0  0  0  0  0  0  0  0  0  0  0
  6  7  1  0  0  0
 15 16  1  0  0  0
 15 17  1  0  0  0
  7  8  1  0  0  0
  7  9  2  0  0  0
  9  5  1  0  0  0
  5  4  1  0  0  0
  4  1  1  0  0  0
  1  2  1  0  0  0
  1  3  2  0  0  0
  3 10  1  0  0  0
 10 11  1  0  0  0
 11 12  1  0  0  0
 12 13  1  0  0  0
 12 14  2  0  0  0
 14 16  1  0  0  0
M  END
> <minimizedAffinity>
-6.22463

> <CNNscore>
0.5335156322

> <CNNaffinity>
5.6014890671

> <CNN_VS>
2.9884819984

> <CNNaffinity_variance>
0.0167825334

$$$$
/media/chris/experiments/cd1a-new-docking/inputs/ligands/6nux_ligand.pdb


 17 16  0  0  0  0  0  0  0  0999 V2000
  -44.1496   58.3558   62.4200 C   0  0  0  0  0  0  0  0  0  0  0  0
  -43.7049   59.7505   62.7575 C   0  0  0  0  0  0  0  0  0  0  0  0
  -43.2318   57.3868   62.2956 C   0  0  0  0  0  0  0  0  0  0  0  0
  -45.6170   58.0368   62.2260 C   0  0  0  0  0  0  0  0  0  0  0  0
  -46.0815   58.4559   60.8350 C   0  0  0  0  0  0  0  0  0  0  0  0
  -48.5458   57.1999   60.0872 C   0  0  0  0  0  0  0  0  0  0  0  0
  -47.2456   56.6848   59.5498 C   0  0  0  0  0  0  0  0  0  0  0  0
  -47.2413   55.5077   58.6216 C   0  0  0  0  0  0  0  0  0  0  0  0
  -46.0899   57.2690   59.8994 C   0  0  0  0  0  0  0  0  0  0  0  0
  -41.7661   57.6977   62.4937 C   0  0  0  0  0  0  0  0  0  0  0  0
  -40.9084   56.6974   61.7282 C   0  0  0  0  0  0  0  0  0  0  0  0
  -39.5361   57.2811   61.4701 C   0  0  0  0  0  0  0  0  0  0  0  0
  -38.3628   56.7986   62.2652 C   0  0  0  0  0  0  0  0  0  0  0  0
  -39.3625   58.2191   60.5275 C   0  0  0  0  0  0  0  0  0  0  0  0
  -37.8686   60.0787   60.9036 O   0  0  0  0  0  0  0  0  0  0  0  0
  -37.9987   58.8102   60.2521 C   0  0  0  0  0  0  0  0  0  0  0  0
  -36.9907   60.4481   60.7200 H   0  0  0  0  0  0  0  0  0  0  0  0
  6  7  1  0  0  0
 15 16  1  0  0  0
 15 17  1  0  0  0
  7  8  1  0  0  0
  7  9  2  0  0  0
  9  5  1  0  0  0
  5  4  1  0  0  0
  4  1  1  0  0  0
  1  2  1  0  0  0
  1  3  2  0  0  0
  3 10  1  0  0  0
 10 11  1  0  0  0
 11 12  1  0  0  0
 12 13  1  0  0  0
 12 14  2  0  0  0
 14 16  1  0  0  0
M  END
> <minimizedAffinity>
-7.18035

> <CNNscore>
0.4781596661

> <CNNaffinity>
5.6235108376

> <CNN_VS>
2.6889359951

> <CNNaffinity_variance>
0.2808554769

$$$$
