/media/chris/experiments/cd1a-new-docking/inputs/ligands/6nux_ligand.pdb


 17 16  0  0  0  0  0  0  0  0999 V2000
  -42.9629   56.7990   63.6879 C   0  0  0  0  0  0  0  0  0  0  0  0
  -43.4178   57.8923   62.7634 C   0  0  0  0  0  0  0  0  0  0  0  0
  -41.7959   56.1834   63.4515 C   0  0  0  0  0  0  0  0  0  0  0  0
  -43.8039   56.3933   64.8799 C   0  0  0  0  0  0  0  0  0  0  0  0
  -45.0947   57.2042   64.9310 C   0  0  0  0  0  0  0  0  0  0  0  0
  -47.9165   57.6883   64.8210 C   0  0  0  0  0  0  0  0  0  0  0  0
  -47.3322   56.9000   65.9532 C   0  0  0  0  0  0  0  0  0  0  0  0
  -48.2315   56.3689   67.0286 C   0  0  0  0  0  0  0  0  0  0  0  0
  -46.0114   56.6732   66.0090 C   0  0  0  0  0  0  0  0  0  0  0  0
  -40.9492   56.5877   62.2666 C   0  0  0  0  0  0  0  0  0  0  0  0
  -39.4955   56.1951   62.5010 C   0  0  0  0  0  0  0  0  0  0  0  0
  -38.5751   57.1667   61.7947 C   0  0  0  0  0  0  0  0  0  0  0  0
  -37.1176   57.1905   62.1363 C   0  0  0  0  0  0  0  0  0  0  0  0
  -39.0541   57.9986   60.8581 C   0  0  0  0  0  0  0  0  0  0  0  0
  -38.0814   60.2089   60.8582 O   0  0  0  0  0  0  0  0  0  0  0  0
  -38.1493   58.9727   60.1386 C   0  0  0  0  0  0  0  0  0  0  0  0
  -37.4987   60.8252   60.3876 H   0  0  0  0  0  0  0  0  0  0  0  0
  6  7  1  0  0  0
 15 16  1  0  0  0
 15 17  1  0  0  0
  7  8  1  0  0  0
  7  9  2  0  0  0
  9  5  1  0  0  0
  5  4  1  0  0  0
  4  1  1  0  0  0
  1  2  1  0  0  0
  1  3  2  0  0  0
  3 10  1  0  0  0
 10 11  1  0  0  0
 11 12  1  0  0  0
 12 13  1  0  0  0
 12 14  2  0  0  0
 14 16  1  0  0  0
M  END
> <minimizedAffinity>
-6.76425

> <CNNscore>
0.7176486850

> <CNNaffinity>
5.8749532700

> <CNN_VS>
4.2161526680

> <CNNaffinity_variance>
0.4033399522

$$$$
/media/chris/experiments/cd1a-new-docking/inputs/ligands/6nux_ligand.pdb


 17 16  0  0  0  0  0  0  0  0999 V2000
  -49.9478   58.4716   61.0384 C   0  0  0  0  0  0  0  0  0  0  0  0
  -49.9236   59.9622   60.8531 C   0  0  0  0  0  0  0  0  0  0  0  0
  -49.6242   57.9536   62.2316 C   0  0  0  0  0  0  0  0  0  0  0  0
  -50.3376   57.5559   59.8972 C   0  0  0  0  0  0  0  0  0  0  0  0
  -49.2266   56.5523   59.6064 C   0  0  0  0  0  0  0  0  0  0  0  0
  -46.5164   57.3724   60.0443 C   0  0  0  0  0  0  0  0  0  0  0  0
  -47.1004   57.4107   58.6651 C   0  0  0  0  0  0  0  0  0  0  0  0
  -46.2599   57.8827   57.5170 C   0  0  0  0  0  0  0  0  0  0  0  0
  -48.3694   57.0294   58.4568 C   0  0  0  0  0  0  0  0  0  0  0  0
  -49.2399   58.8627   63.3762 C   0  0  0  0  0  0  0  0  0  0  0  0
  -49.6475   58.2366   64.7044 C   0  0  0  0  0  0  0  0  0  0  0  0
  -48.4355   57.6505   65.3955 C   0  0  0  0  0  0  0  0  0  0  0  0
  -48.5923   56.9735   66.7217 C   0  0  0  0  0  0  0  0  0  0  0  0
  -47.2247   57.7242   64.8236 C   0  0  0  0  0  0  0  0  0  0  0  0
  -45.2704   58.1697   66.1704 O   0  0  0  0  0  0  0  0  0  0  0  0
  -46.0034   57.1405   65.4966 C   0  0  0  0  0  0  0  0  0  0  0  0
  -44.4899   57.7837   66.5979 H   0  0  0  0  0  0  0  0  0  0  0  0
  6  7  1  0  0  0
 15 16  1  0  0  0
 15 17  1  0  0  0
  7  8  1  0  0  0
  7  9  2  0  0  0
  9  5  1  0  0  0
  5  4  1  0  0  0
  4  1  1  0  0  0
  1  2  1  0  0  0
  1  3  2  0  0  0
  3 10  1  0  0  0
 10 11  1  0  0  0
 11 12  1  0  0  0
 12 13  1  0  0  0
 12 14  2  0  0  0
 14 16  1  0  0  0
M  END
> <minimizedAffinity>
-7.36315

> <CNNscore>
0.6712790728

> <CNNaffinity>
5.8306341171

> <CNN_VS>
3.9139826298

> <CNNaffinity_variance>
0.1525494903

$$$$
/media/chris/experiments/cd1a-new-docking/inputs/ligands/6nux_ligand.pdb


 17 16  0  0  0  0  0  0  0  0999 V2000
  -49.9897   58.4243   60.9699 C   0  0  0  0  0  0  0  0  0  0  0  0
  -49.9446   59.9178   60.8137 C   0  0  0  0  0  0  0  0  0  0  0  0
  -49.6974   57.8801   62.1594 C   0  0  0  0  0  0  0  0  0  0  0  0
  -50.3656   57.5351   59.8034 C   0  0  0  0  0  0  0  0  0  0  0  0
  -49.2651   56.5168   59.5240 C   0  0  0  0  0  0  0  0  0  0  0  0
  -46.5589   57.3499   59.9619 C   0  0  0  0  0  0  0  0  0  0  0  0
  -47.1347   57.3603   58.5788 C   0  0  0  0  0  0  0  0  0  0  0  0
  -46.2882   57.8114   57.4267 C   0  0  0  0  0  0  0  0  0  0  0  0
  -48.4018   56.9729   58.3704 C   0  0  0  0  0  0  0  0  0  0  0  0
  -49.3271   58.7627   63.3291 C   0  0  0  0  0  0  0  0  0  0  0  0
  -49.7444   58.1033   64.6380 C   0  0  0  0  0  0  0  0  0  0  0  0
  -48.5195   57.7239   65.4416 C   0  0  0  0  0  0  0  0  0  0  0  0
  -47.1621   57.8252   64.8182 C   0  0  0  0  0  0  0  0  0  0  0  0
  -48.6409   57.3078   66.7108 C   0  0  0  0  0  0  0  0  0  0  0  0
  -47.0738   57.9997   68.4129 O   0  0  0  0  0  0  0  0  0  0  0  0
  -47.4286   56.9291   67.5306 C   0  0  0  0  0  0  0  0  0  0  0  0
  -46.2957   57.7455   68.9331 H   0  0  0  0  0  0  0  0  0  0  0  0
  6  7  1  0  0  0
 15 16  1  0  0  0
 15 17  1  0  0  0
  7  8  1  0  0  0
  7  9  2  0  0  0
  9  5  1  0  0  0
  5  4  1  0  0  0
  4  1  1  0  0  0
  1  2  1  0  0  0
  1  3  2  0  0  0
  3 10  1  0  0  0
 10 11  1  0  0  0
 11 12  1  0  0  0
 12 13  1  0  0  0
 12 14  2  0  0  0
 14 16  1  0  0  0
M  END
> <minimizedAffinity>
-7.73286

> <CNNscore>
0.6692078710

> <CNNaffinity>
5.8602662086

> <CNN_VS>
3.9217362404

> <CNNaffinity_variance>
0.1171712503

$$$$
/media/chris/experiments/cd1a-new-docking/inputs/ligands/6nux_ligand.pdb


 17 16  0  0  0  0  0  0  0  0999 V2000
  -38.3328   57.5549   61.3778 C   0  0  0  0  0  0  0  0  0  0  0  0
  -39.3468   58.2639   60.5257 C   0  0  0  0  0  0  0  0  0  0  0  0
  -38.7442   56.6193   62.2451 C   0  0  0  0  0  0  0  0  0  0  0  0
  -36.8591   57.8825   61.2616 C   0  0  0  0  0  0  0  0  0  0  0  0
  -36.0849   57.3161   62.4473 C   0  0  0  0  0  0  0  0  0  0  0  0
  -33.4489   56.4680   61.7115 C   0  0  0  0  0  0  0  0  0  0  0  0
  -33.6502   57.7792   62.4078 C   0  0  0  0  0  0  0  0  0  0  0  0
  -32.4651   58.6428   62.7194 C   0  0  0  0  0  0  0  0  0  0  0  0
  -34.8826   58.1785   62.7555 C   0  0  0  0  0  0  0  0  0  0  0  0
  -40.2132   56.2837   62.3616 C   0  0  0  0  0  0  0  0  0  0  0  0
  -40.6718   56.4257   63.8079 C   0  0  0  0  0  0  0  0  0  0  0  0
  -40.8055   57.8893   64.1686 C   0  0  0  0  0  0  0  0  0  0  0  0
  -41.7445   58.7617   63.3947 C   0  0  0  0  0  0  0  0  0  0  0  0
  -40.0969   58.4072   65.1826 C   0  0  0  0  0  0  0  0  0  0  0  0
  -39.0154   60.5658   65.2325 O   0  0  0  0  0  0  0  0  0  0  0  0
  -40.2208   59.8656   65.5606 C   0  0  0  0  0  0  0  0  0  0  0  0
  -39.1066   61.4994   65.4793 H   0  0  0  0  0  0  0  0  0  0  0  0
  6  7  1  0  0  0
 15 16  1  0  0  0
 15 17  1  0  0  0
  7  8  1  0  0  0
  7  9  2  0  0  0
  9  5  1  0  0  0
  5  4  1  0  0  0
  4  1  1  0  0  0
  1  2  1  0  0  0
  1  3  2  0  0  0
  3 10  1  0  0  0
 10 11  1  0  0  0
 11 12  1  0  0  0
 12 13  1  0  0  0
 12 14  2  0  0  0
 14 16  1  0  0  0
M  END
> <minimizedAffinity>
-6.79924

> <CNNscore>
0.6655077934

> <CNNaffinity>
5.5842943192

> <CNN_VS>
3.7163913250

> <CNNaffinity_variance>
0.0323224962

$$$$
/media/chris/experiments/cd1a-new-docking/inputs/ligands/6nux_ligand.pdb


 17 16  0  0  0  0  0  0  0  0999 V2000
  -49.1846   59.0231   61.8723 C   0  0  0  0  0  0  0  0  0  0  0  0
  -49.5826   57.6508   61.4082 C   0  0  0  0  0  0  0  0  0  0  0  0
  -49.2785   59.3281   63.1741 C   0  0  0  0  0  0  0  0  0  0  0  0
  -48.6762   60.0557   60.8885 C   0  0  0  0  0  0  0  0  0  0  0  0
  -47.1952   59.8391   60.5954 C   0  0  0  0  0  0  0  0  0  0  0  0
  -46.1305   57.2555   59.9625 C   0  0  0  0  0  0  0  0  0  0  0  0
  -46.4991   58.2066   58.8651 C   0  0  0  0  0  0  0  0  0  0  0  0
  -46.3052   57.7999   57.4353 C   0  0  0  0  0  0  0  0  0  0  0  0
  -46.9958   59.4177   59.1578 C   0  0  0  0  0  0  0  0  0  0  0  0
  -49.7798   58.2998   64.1619 C   0  0  0  0  0  0  0  0  0  0  0  0
  -49.7661   58.8758   65.5727 C   0  0  0  0  0  0  0  0  0  0  0  0
  -48.4832   58.4920   66.2776 C   0  0  0  0  0  0  0  0  0  0  0  0
  -47.4054   59.5139   66.4658 C   0  0  0  0  0  0  0  0  0  0  0  0
  -48.3097   57.2464   66.7436 C   0  0  0  0  0  0  0  0  0  0  0  0
  -46.1410   56.2040   66.5403 O   0  0  0  0  0  0  0  0  0  0  0  0
  -47.0372   56.8459   67.4544 C   0  0  0  0  0  0  0  0  0  0  0  0
  -45.3290   55.9519   67.0071 H   0  0  0  0  0  0  0  0  0  0  0  0
  6  7  1  0  0  0
 15 16  1  0  0  0
 15 17  1  0  0  0
  7  8  1  0  0  0
  7  9  2  0  0  0
  9  5  1  0  0  0
  5  4  1  0  0  0
  4  1  1  0  0  0
  1  2  1  0  0  0
  1  3  2  0  0  0
  3 10  1  0  0  0
 10 11  1  0  0  0
 11 12  1  0  0  0
 12 13  1  0  0  0
 12 14  2  0  0  0
 14 16  1  0  0  0
M  END
> <minimizedAffinity>
-7.18681

> <CNNscore>
0.6564801931

> <CNNaffinity>
5.8450326920

> <CNN_VS>
3.8371481895

> <CNNaffinity_variance>
0.1252189577

$$$$
/media/chris/experiments/cd1a-new-docking/inputs/ligands/6nux_ligand.pdb


 17 16  0  0  0  0  0  0  0  0999 V2000
  -41.3052   56.0033   63.0762 C   0  0  0  0  0  0  0  0  0  0  0  0
  -41.6155   54.5706   63.4045 C   0  0  0  0  0  0  0  0  0  0  0  0
  -42.0875   56.9735   63.5695 C   0  0  0  0  0  0  0  0  0  0  0  0
  -40.1203   56.3582   62.2028 C   0  0  0  0  0  0  0  0  0  0  0  0
  -39.0780   57.1380   62.9976 C   0  0  0  0  0  0  0  0  0  0  0  0
  -36.5976   57.3464   64.4166 C   0  0  0  0  0  0  0  0  0  0  0  0
  -36.6042   57.2720   62.9203 C   0  0  0  0  0  0  0  0  0  0  0  0
  -35.3066   57.3100   62.1704 C   0  0  0  0  0  0  0  0  0  0  0  0
  -37.7636   57.1764   62.2527 C   0  0  0  0  0  0  0  0  0  0  0  0
  -43.2683   56.6260   64.4466 C   0  0  0  0  0  0  0  0  0  0  0  0
  -42.9329   56.8919   65.9092 C   0  0  0  0  0  0  0  0  0  0  0  0
  -43.8573   57.9510   66.4695 C   0  0  0  0  0  0  0  0  0  0  0  0
  -43.3021   59.2801   66.8778 C   0  0  0  0  0  0  0  0  0  0  0  0
  -45.1710   57.7108   66.5927 C   0  0  0  0  0  0  0  0  0  0  0  0
  -46.9794   58.1759   68.1239 O   0  0  0  0  0  0  0  0  0  0  0  0
  -46.1105   58.7580   67.1457 C   0  0  0  0  0  0  0  0  0  0  0  0
  -47.5769   58.8565   68.4713 H   0  0  0  0  0  0  0  0  0  0  0  0
  6  7  1  0  0  0
 15 16  1  0  0  0
 15 17  1  0  0  0
  7  8  1  0  0  0
  7  9  2  0  0  0
  9  5  1  0  0  0
  5  4  1  0  0  0
  4  1  1  0  0  0
  1  2  1  0  0  0
  1  3  2  0  0  0
  3 10  1  0  0  0
 10 11  1  0  0  0
 11 12  1  0  0  0
 12 13  1  0  0  0
 12 14  2  0  0  0
 14 16  1  0  0  0
M  END
> <minimizedAffinity>
-6.66933

> <CNNscore>
0.6221913695

> <CNNaffinity>
5.5487594604

> <CNN_VS>
3.4523901939

> <CNNaffinity_variance>
0.0568184368

$$$$
/media/chris/experiments/cd1a-new-docking/inputs/ligands/6nux_ligand.pdb


 17 16  0  0  0  0  0  0  0  0999 V2000
  -48.8273   59.2681   62.7030 C   0  0  0  0  0  0  0  0  0  0  0  0
  -49.4994   57.9602   62.3955 C   0  0  0  0  0  0  0  0  0  0  0  0
  -47.6323   59.5355   62.1578 C   0  0  0  0  0  0  0  0  0  0  0  0
  -49.4872   60.2824   63.6132 C   0  0  0  0  0  0  0  0  0  0  0  0
  -49.6227   59.7302   65.0285 C   0  0  0  0  0  0  0  0  0  0  0  0
  -48.1006   57.4339   65.8155 C   0  0  0  0  0  0  0  0  0  0  0  0
  -47.6129   58.8104   66.1502 C   0  0  0  0  0  0  0  0  0  0  0  0
  -46.3263   58.9788   66.9009 C   0  0  0  0  0  0  0  0  0  0  0  0
  -48.3239   59.8875   65.7851 C   0  0  0  0  0  0  0  0  0  0  0  0
  -46.9712   58.5297   61.2438 C   0  0  0  0  0  0  0  0  0  0  0  0
  -46.7897   59.1237   59.8522 C   0  0  0  0  0  0  0  0  0  0  0  0
  -47.1245   58.0899   58.7989 C   0  0  0  0  0  0  0  0  0  0  0  0
  -46.2163   57.9075   57.6228 C   0  0  0  0  0  0  0  0  0  0  0  0
  -48.2229   57.3295   58.9174 C   0  0  0  0  0  0  0  0  0  0  0  0
  -48.1141   54.9980   58.2977 O   0  0  0  0  0  0  0  0  0  0  0  0
  -48.5712   56.2886   57.8780 C   0  0  0  0  0  0  0  0  0  0  0  0
  -48.3429   54.3391   57.6237 H   0  0  0  0  0  0  0  0  0  0  0  0
  6  7  1  0  0  0
 15 16  1  0  0  0
 15 17  1  0  0  0
  7  8  1  0  0  0
  7  9  2  0  0  0
  9  5  1  0  0  0
  5  4  1  0  0  0
  4  1  1  0  0  0
  1  2  1  0  0  0
  1  3  2  0  0  0
  3 10  1  0  0  0
 10 11  1  0  0  0
 11 12  1  0  0  0
 12 13  1  0  0  0
 12 14  2  0  0  0
 14 16  1  0  0  0
M  END
> <minimizedAffinity>
-6.54760

> <CNNscore>
0.5822200179

> <CNNaffinity>
5.9410429001

> <CNN_VS>
3.4589941502

> <CNNaffinity_variance>
0.0621436052

$$$$
/media/chris/experiments/cd1a-new-docking/inputs/ligands/6nux_ligand.pdb


 17 16  0  0  0  0  0  0  0  0999 V2000
  -37.7983   57.3226   62.5596 C   0  0  0  0  0  0  0  0  0  0  0  0
  -37.9198   57.5967   64.0317 C   0  0  0  0  0  0  0  0  0  0  0  0
  -38.8324   56.7733   61.9072 C   0  0  0  0  0  0  0  0  0  0  0  0
  -36.5275   57.6648   61.8108 C   0  0  0  0  0  0  0  0  0  0  0  0
  -35.3385   56.9046   62.3892 C   0  0  0  0  0  0  0  0  0  0  0  0
  -33.7762   58.4193   64.2531 C   0  0  0  0  0  0  0  0  0  0  0  0
  -33.3098   58.2557   62.8387 C   0  0  0  0  0  0  0  0  0  0  0  0
  -32.0233   58.8910   62.4042 C   0  0  0  0  0  0  0  0  0  0  0  0
  -34.0397   57.5490   61.9630 C   0  0  0  0  0  0  0  0  0  0  0  0
  -40.1056   56.4348   62.6479 C   0  0  0  0  0  0  0  0  0  0  0  0
  -41.3185   56.8707   61.8348 C   0  0  0  0  0  0  0  0  0  0  0  0
  -42.1052   57.9158   62.5957 C   0  0  0  0  0  0  0  0  0  0  0  0
  -43.5650   57.7045   62.8528 C   0  0  0  0  0  0  0  0  0  0  0  0
  -41.5017   59.0239   63.0501 C   0  0  0  0  0  0  0  0  0  0  0  0
  -41.3662   61.0199   64.4025 O   0  0  0  0  0  0  0  0  0  0  0  0
  -42.2700   60.0765   63.8161 C   0  0  0  0  0  0  0  0  0  0  0  0
  -41.8700   61.6897   64.8908 H   0  0  0  0  0  0  0  0  0  0  0  0
  6  7  1  0  0  0
 15 16  1  0  0  0
 15 17  1  0  0  0
  7  8  1  0  0  0
  7  9  2  0  0  0
  9  5  1  0  0  0
  5  4  1  0  0  0
  4  1  1  0  0  0
  1  2  1  0  0  0
  1  3  2  0  0  0
  3 10  1  0  0  0
 10 11  1  0  0  0
 11 12  1  0  0  0
 12 13  1  0  0  0
 12 14  2  0  0  0
 14 16  1  0  0  0
M  END
> <minimizedAffinity>
-6.60381

> <CNNscore>
0.5696229935

> <CNNaffinity>
5.5381588936

> <CNN_VS>
3.1546626091

> <CNNaffinity_variance>
0.1333040893

$$$$
/media/chris/experiments/cd1a-new-docking/inputs/ligands/6nux_ligand.pdb


 17 16  0  0  0  0  0  0  0  0999 V2000
  -34.7196   58.1509   63.2582 C   0  0  0  0  0  0  0  0  0  0  0  0
  -33.2319   58.3525   63.2039 C   0  0  0  0  0  0  0  0  0  0  0  0
  -35.4567   58.9212   64.0706 C   0  0  0  0  0  0  0  0  0  0  0  0
  -35.3894   57.0952   62.4040 C   0  0  0  0  0  0  0  0  0  0  0  0
  -36.6679   57.6401   61.7757 C   0  0  0  0  0  0  0  0  0  0  0  0
  -39.2628   58.0635   60.6372 C   0  0  0  0  0  0  0  0  0  0  0  0
  -39.0893   57.1110   61.7807 C   0  0  0  0  0  0  0  0  0  0  0  0
  -40.2809   56.3835   62.3269 C   0  0  0  0  0  0  0  0  0  0  0  0
  -37.8763   56.9120   62.3174 C   0  0  0  0  0  0  0  0  0  0  0  0
  -34.7947   59.9806   64.9213 C   0  0  0  0  0  0  0  0  0  0  0  0
  -35.6424   61.2468   64.9380 C   0  0  0  0  0  0  0  0  0  0  0  0
  -35.3163   62.1056   63.7354 C   0  0  0  0  0  0  0  0  0  0  0  0
  -36.4252   62.6498   62.8893 C   0  0  0  0  0  0  0  0  0  0  0  0
  -34.0422   62.3908   63.4289 C   0  0  0  0  0  0  0  0  0  0  0  0
  -33.3756   64.5802   62.6584 O   0  0  0  0  0  0  0  0  0  0  0  0
  -33.6973   63.2507   62.2345 C   0  0  0  0  0  0  0  0  0  0  0  0
  -33.1562   65.1221   61.8844 H   0  0  0  0  0  0  0  0  0  0  0  0
  6  7  1  0  0  0
 15 16  1  0  0  0
 15 17  1  0  0  0
  7  8  1  0  0  0
  7  9  2  0  0  0
  9  5  1  0  0  0
  5  4  1  0  0  0
  4  1  1  0  0  0
  1  2  1  0  0  0
  1  3  2  0  0  0
  3 10  1  0  0  0
 10 11  1  0  0  0
 11 12  1  0  0  0
 12 13  1  0  0  0
 12 14  2  0  0  0
 14 16  1  0  0  0
M  END
> <minimizedAffinity>
-6.82853

> <CNNscore>
0.5569245815

> <CNNaffinity>
5.2175188065

> <CNN_VS>
2.9057645798

> <CNNaffinity_variance>
0.0828586966

$$$$
